
*** ChampSim Multicore Out-of-Order Simulator ***

Warmup Instructions: 10000000
Simulation Instructions: 10000000
Number of CPUs: 1
LLC sets: 2048
LLC ways: 16
Off-chip DRAM Size: 4096 MB Channels: 1 Width: 64-bit Data Rate: 3200 MT/s

CPU 0 runs /mnt/c/Users/Asus/OneDrive/Desktop/ACADEMICS/SEM4/CS204/ChampSim/dpc3_traces/605.mcf_s-1536B.champsimtrace.xz
CPU 0 Bimodal branch predictor
Set: 3000
Set: 3000
Set: 3000
Set: 3000
Set: 3000
Set: 3000
Set: 3000
Set: 3000
Set: 3000
Set: 3000
Set: 3000
Set: 3000
Set: 3000
Set: 3000
Set: 3000
Set: 3000
Set: 3000
Set: 3000
Set: 3000
Set: 3000
Set: 3000
Set: 3000
Set: 3000
Set: 3000
Set: 3000
Set: 3000
Set: 3000
Set: 3000
Set: 3000
Set: 3000
Set: 3000
Set: 3000
Set: 3000
Set: 3000
Set: 3000
Set: 3000
Set: 3000
Set: 3000
Set: 3000
Set: 3000
Set: 3000
Set: 3000
Set: 3000
Set: 3000
Set: 3000
Set: 3000
Set: 3000
Set: 3000
Set: 3000
Set: 3000
Set: 3000
Set: 3000
Set: 3000
Set: 3000
Set: 3000
Set: 3000
Set: 3000
Set: 3000
Set: 3000
Set: 3000
Set: 3000
Set: 3000
Set: 3000
Set: 3000
Set: 3000
Set: 3000
Set: 3000
Set: 3000
Set: 3000
Set: 3000
Set: 3000
Set: 3000
Set: 3000
Set: 3000
Set: 3000
Set: 3000
Set: 3000
Set: 3000
Set: 3000
Set: 3000
Set: 3000
Set: 3000
Set: 3000
Set: 3000
Set: 3000
Set: 3000
Set: 3000
Set: 3000
Set: 3000
Set: 3000
Set: 3000
Set: 3000
Set: 3000
Set: 3000
Set: 3000
Set: 3000
Set: 3000
Set: 3000
Set: 3000
Set: 3000
Set: 3000
Set: 3000
Set: 3000
Set: 3000
Set: 3000
Set: 3000
Set: 3000
Set: 3000
Set: 3000
Set: 3000
Set: 3000
Set: 3000
Set: 3000
Set: 3000
Set: 3000
Set: 3000
Set: 3000
Set: 3000
Set: 3000
Set: 3000
Set: 3000
Set: 3000
Set: 3000
Set: 3000
Set: 3000
Set: 3000
Set: 3000
Set: 3000
Set: 3000
Set: 3000
Set: 3000
Set: 3000
Set: 3000
Set: 3000
Set: 3000
Set: 3000
Set: 3000
Set: 3000
Set: 3000
Set: 3000
Set: 3000
Set: 3000
Set: 3000
Set: 3000
Set: 3000
Set: 3000
Set: 3000
Set: 3000
Set: 3000
Set: 3000
Set: 3000
Set: 3000
Set: 3000
Set: 3000
Set: 3000
Set: 3000
Set: 3000
Set: 3000
Set: 3000
Set: 3000
Set: 3000
Set: 3000
Set: 3000
Set: 3000
Set: 3000
Set: 3000
Set: 3000
Set: 3000
Set: 3000
Set: 3000
Set: 3000
Set: 3000
Set: 3000
Set: 3000
Set: 3000
Set: 3000
Set: 3000
Set: 3000
Set: 3000
Set: 3000
Set: 3000
Set: 3000
Set: 3000
Set: 3000
Set: 3000
Set: 3000
Set: 3000
Set: 3000
Set: 3000
Set: 3000
Set: 3000
Set: 3000
Set: 3000
Set: 3000
Set: 3000
Set: 3000
Set: 3000
Set: 3000
Set: 3000
Set: 3000
Set: 3000
Set: 3000
Set: 3000
Set: 3000
Set: 3000
Set: 3000
Set: 3000
Set: 3000
Set: 3000
Set: 3000
Set: 3000
Set: 3000
Set: 3000
Set: 3000
Set: 3000
Set: 3000
Set: 3000
Set: 3000
Set: 3000
Set: 3000
Set: 3000
Set: 3000
Set: 3000
Set: 3000
Set: 3000
Set: 3000
Set: 3000
Set: 3000
Set: 3000
Set: 3000
Set: 3000
Set: 3000
Set: 3000
Set: 3000
Set: 3000
Set: 3000
Set: 3000
Set: 3000
Set: 3000
Set: 3000
Set: 3000
Set: 3000
Set: 3000
Set: 3000
Set: 3000
Set: 3000
Set: 3000
Set: 3000
Set: 3000
Set: 3000
Set: 3000
Set: 3000
Set: 3000
Set: 3000
Set: 3000
Set: 3000
Set: 3000
Set: 3000
Set: 3000
Set: 3000
Set: 3000
Set: 3000
Set: 3000
Set: 3000
Set: 3000
Set: 3000
Set: 3000
Set: 3000
Set: 3000
Set: 3000
Set: 3000
Set: 3000
Set: 3000
Set: 3000
Set: 3000
Set: 3000
Set: 3000
Set: 3000
Set: 3000
Set: 3000
Set: 3000
Set: 3000
Set: 3000
Set: 3000
Set: 3000
Set: 3000
Set: 3000
Set: 3000
Set: 3000
Set: 3000
Set: 3000
Set: 3000
Set: 3000
Set: 3000
Set: 3000
Set: 3000
Set: 3000
Set: 3000
Set: 3000
Set: 3000
Set: 3000
Set: 3000
Set: 3000
Set: 3000
Set: 3000
Set: 3000
Set: 3000
Set: 3000
Set: 3000
Set: 3000
Set: 3000
Set: 3000
Set: 3000
Set: 3000
Set: 3000
Set: 3000
Set: 3000
Set: 3000
Set: 3000
Set: 3000
Set: 3000
Set: 3000
Set: 3000
Set: 3000
Set: 3000
Set: 3000
Set: 3000
Set: 3000
Set: 3000
Set: 3000
Set: 3000
Set: 3000
Set: 3000
Set: 3000
Set: 3000
Set: 3000
Set: 3000
Set: 3000
Set: 3000
Set: 3000
Set: 3000
Set: 3000
Set: 3000
Set: 3000
Set: 3000
Set: 3000
Set: 3000
Set: 3000
Set: 3000
Set: 3000
Set: 3000
Set: 3000
Set: 3000
Set: 3000
Set: 3000
Set: 3000
Set: 3000
Set: 3000
Set: 3000
Set: 3000
Set: 3000
Set: 3000
Set: 3000
Set: 3000
Set: 3000
Set: 3000
Set: 3000
Set: 3000
Set: 3000
Set: 3000
Set: 3000
Set: 3000
Set: 3000
Set: 3000
Set: 3000
Set: 3000
Set: 3000
Set: 3000
Set: 3000
Set: 3000
Set: 3000
Set: 3000
Set: 3000
Set: 3000
Set: 3000
Set: 3000
Set: 3000
Set: 3000
Set: 3000
Set: 3000
Set: 3000
Set: 3000
Set: 3000
Set: 3000
Set: 3000
Set: 3000
Set: 3000
Set: 3000
Set: 3000
Set: 3000
Set: 3000
Set: 3000
Set: 3000
Set: 3000
Set: 3000
Set: 3000
Set: 3000
Set: 3000
Set: 3000
Set: 3000
Set: 3000
Set: 3000
Set: 3000
Set: 3000
Set: 3000
Set: 3000
Set: 3000
Set: 3000
Set: 3000
Set: 3000
Set: 3000
Set: 3000
Set: 3000
Set: 3000
Set: 3000
Set: 3000
Set: 3000
Set: 3000
Set: 3000
Set: 3000
Set: 3000
Set: 3000
Set: 3000
Set: 3000
Set: 3000
Set: 3000
Set: 3000
Set: 3000
Set: 3000
Set: 3000
Set: 3000
Set: 3000
Set: 3000
Set: 3000
Set: 3000
Set: 3000
Set: 3000
Set: 3000
Set: 3000
Set: 3000
Set: 3000
Set: 3000
Set: 3000
Set: 3000
Set: 3000
Set: 3000
Set: 3000
Set: 3000
Set: 3000
Set: 3000
Set: 3000
Set: 3000
Set: 3000
Set: 3000
Set: 3000
Set: 3000
Set: 3000
Set: 3000
Set: 3000
Set: 3000
Set: 3000
Set: 3000
Set: 3000
Set: 3000
Set: 3000
Set: 3000
Set: 3000
Set: 3000
Set: 3000
Set: 3000
Set: 3000
Set: 3000
Set: 3000
Set: 3000
Set: 3000
Set: 3000
Set: 3000
Set: 3000
Set: 3000
Set: 3000
Set: 3000
Set: 3000
Set: 3000
Set: 3000
Set: 3000
Set: 3000
Set: 3000
Set: 3000
Set: 3000
Set: 3000
Set: 3000
Set: 3000
Set: 3000
Set: 3000
Set: 3000
Set: 3000
Set: 3000
Set: 3000
Set: 3000
Set: 3000
Set: 3000
Set: 3000
Set: 3000
Set: 3000
Set: 3000
Set: 3000
Set: 3000
Set: 3000
Set: 3000
Set: 3000
Set: 3000
Set: 3000
Set: 3000
Set: 3000
Set: 3000
Set: 3000
Set: 3000
Set: 3000
Set: 3000
Set: 3000
Set: 3000
Set: 3000
Set: 3000
Set: 3000
Set: 3000
Set: 3000
Set: 3000
Set: 3000
Set: 3000
Set: 3000
Set: 3000
Set: 3000
Set: 3000
Set: 3000
Set: 3000
Set: 3000
Set: 3000
Set: 3000
Set: 3000
Set: 3000
Set: 3000
Set: 3000
Set: 3000
Set: 3000
Set: 3000
Set: 3000
Set: 3000
Set: 3000
Set: 3000
Set: 3000
Set: 3000
Set: 3000
Set: 3000
Set: 3000
Set: 3000
Set: 3000
Set: 3000
Set: 3000
Set: 3000
Set: 3000
Set: 3000
Set: 3000
Set: 3000
Set: 3000
Set: 3000
Set: 3000
Set: 3000
Set: 3000
Set: 3000
Set: 3000
Set: 3000
Set: 3000
Set: 3000
Set: 3000
Set: 3000
Set: 3000
Set: 3000
Set: 3000
Set: 3000
Set: 3000
Set: 3000
Set: 3000
Set: 3000
Set: 3000
Set: 3000
Set: 3000
Set: 3000
Set: 3000
Set: 3000
Set: 3000
Set: 3000
Set: 3000
Set: 3000
Set: 3000
Set: 3000
Set: 3000
Set: 3000
Set: 3000
Set: 3000
Set: 3000
Set: 3000
Set: 3000
Set: 3000
Set: 3000
Set: 3000
Set: 3000
Set: 3000
Set: 3000
Set: 3000
Set: 3000
Set: 3000
Set: 3000
Set: 3000
Set: 3000
Set: 3000
Set: 3000
Set: 3000
Set: 3000
Set: 3000
Set: 3000
Set: 3000
Set: 3000
Set: 3000
Set: 3000
Set: 3000
Set: 3000
Set: 3000
Set: 3000
Set: 3000
Set: 3000
Set: 3000
Set: 3000
Set: 3000
Set: 3000
Set: 3000
Set: 3000
Set: 3000
Set: 3000
Set: 3000
Set: 3000
Set: 3000
Set: 3000
Set: 3000
Set: 3000
Set: 3000
Set: 3000
Set: 3000
Set: 3000
Set: 3000
Set: 3000
Set: 3000
Set: 3000
Set: 3000
Set: 3000
Set: 3000
Set: 3000
Set: 3000
Set: 3000
Set: 3000
Set: 3000
Set: 3000
Set: 3000
Set: 3000
Set: 3000
Set: 3000
Set: 3000
Set: 3000
Set: 3000
Set: 3000
Set: 3000
Set: 3000
Set: 3000
Set: 3000
Set: 3000
Set: 3000
Set: 3000
Set: 3000
Set: 3000
Set: 3000
Set: 3000
Set: 3000
Set: 3000
Set: 3000
Set: 3000
Set: 3000
Set: 3000
Set: 3000
Set: 3000
Set: 3000
Set: 3000
Set: 3000
Set: 3000
Set: 3000
Set: 3000
Set: 3000
Set: 3000
Set: 3000
Set: 3000
Set: 3000
Set: 3000
Set: 3000
Set: 3000
Set: 3000
Set: 3000
Set: 3000
Set: 3000
Set: 3000
Set: 3000
Set: 3000
Set: 3000
Set: 3000
Set: 3000
Set: 3000
Set: 3000
Set: 3000
Set: 3000
Set: 3000
Set: 3000
Set: 3000
Set: 3000
Set: 3000
Set: 3000
Set: 3000
Set: 3000
Set: 3000
Set: 3000
Set: 3000
Set: 3000
Set: 3000
Set: 3000
Set: 3000
Set: 3000
Set: 3000
Set: 3000
Set: 3000
Set: 3000
Set: 3000
Set: 3000
Set: 3000
Set: 3000
Set: 3000
Set: 3000
Set: 3000
Set: 3000
Set: 3000
Set: 3000
Set: 3000
Set: 3000
Set: 3000
Set: 3000
Set: 3000
Set: 3000
Set: 3000
Set: 3000
Set: 3000
Set: 3000
Set: 3000
Set: 3000
Set: 3000
Set: 3000
Set: 3000
Set: 3000
Set: 3000
Set: 3000
Set: 3000
Set: 3000
Set: 3000
Set: 3000
Set: 3000
Set: 3000
Set: 3000
Set: 3000
Set: 3000
Set: 3000
Set: 3000
Set: 3000
Set: 3000
Set: 3000
Set: 3000
Set: 3000
Set: 3000
Set: 3000
Set: 3000
Set: 3000
Set: 3000
Set: 3000
Set: 3000
Set: 3000
Set: 3000
Set: 3000
Set: 3000
Set: 3000
Set: 3000
Set: 3000
Set: 3000
Set: 3000
Set: 3000
Set: 3000
Set: 3000
Set: 3000
Set: 3000
Set: 3000
Set: 3000
Set: 3000
Set: 3000
Set: 3000
Set: 3000
Set: 3000
Set: 3000
Set: 3000
Set: 3000
Set: 3000
Set: 3000
Set: 3000
Set: 3000
Set: 3000
Set: 3000
Set: 3000
Set: 3000
Set: 3000
Set: 3000
Set: 3000
Set: 3000
Set: 3000
Set: 3000
Set: 3000
Set: 3000
Set: 3000
Set: 3000
Set: 3000
Set: 3000
Set: 3000
Set: 3000
Set: 3000
Set: 3000
Set: 3000
Set: 3000
Set: 3000
Set: 3000
Set: 3000
Set: 3000
Set: 3000
Set: 3000
Set: 3000
Set: 3000
Set: 3000
Set: 3000
Set: 3000
Set: 3000
Set: 3000
Set: 3000
Set: 3000
Set: 3000
Set: 3000
Set: 3000
Set: 3000
Set: 3000
Set: 3000
Set: 3000
Set: 3000
Set: 3000
Set: 3000
Set: 3000
Set: 3000
Set: 3000
Set: 3000
Set: 3000
Set: 3000
Set: 3000
Set: 3000
Set: 3000
Set: 3000
Set: 3000
Set: 3000
Set: 3000
Set: 3000
Set: 3000
Set: 3000
Set: 3000
Set: 3000
Set: 3000
Set: 3000
Set: 3000
Set: 3000
Set: 3000
Set: 3000
Set: 3000
Set: 3000
Set: 3000
Set: 3000
Set: 3000
Set: 3000
Set: 3000
Set: 3000
Set: 3000
Set: 3000
Set: 3000
Set: 3000
Set: 3000
Set: 3000
Set: 3000
Set: 3000
Set: 3000
Set: 3000
Set: 3000
Set: 3000
Set: 3000
Set: 3000
Set: 3000
Set: 3000
Set: 3000
Set: 3000
Set: 3000
Set: 3000
Set: 3000
Set: 3000
Set: 3000
Set: 3000
Set: 3000
Set: 3000
Set: 3000
Set: 3000
Set: 3000
Set: 3000
Set: 3000
Set: 3000
Set: 3000
Set: 3000
Set: 3000
Set: 3000
Set: 3000
Set: 3000
Set: 3000
Set: 3000
Set: 3000
Set: 3000
Set: 3000
Set: 3000
Set: 3000
Set: 3000
Set: 3000
Set: 3000
Set: 3000
Set: 3000
Set: 3000
Set: 3000
Set: 3000
Set: 3000
Set: 3000
Set: 3000
Set: 3000
Set: 3000
Set: 3000
Set: 3000
Set: 3000
Set: 3000
Set: 3000
Set: 3000
Set: 3000
Set: 3000
Set: 3000
Set: 3000
Set: 3000
Set: 3000
Set: 3000
Set: 3000
Set: 3000
Set: 3000
Set: 3000
Set: 3000
Set: 3000
Set: 3000
Set: 3000
Set: 3000
Set: 3000
Set: 3000
Set: 3000
Set: 3000
Set: 3000
Set: 3000
Set: 3000
Set: 3000
Set: 3000
Set: 3000
Set: 3000
Set: 3000
Set: 3000
Set: 3000
Set: 3000
Set: 3000
Set: 3000
Set: 3000
Set: 3000
Set: 3000
Set: 3000
Set: 3000
Set: 3000
Set: 3000
Set: 3000
Set: 3000
Set: 3000
Set: 3000
Set: 3000
Set: 3000
Set: 3000
Set: 3000
Set: 3000
Set: 3000
Set: 3000
Set: 3000
Set: 3000
Set: 3000
Set: 3000
Set: 3000
Set: 3000
Set: 3000
Set: 3000
Set: 3000
Set: 3000
Set: 3000
Set: 3000
Set: 3000
Set: 3000
Set: 3000
Set: 3000
Set: 3000
Set: 3000
Set: 3000
Set: 3000
Set: 3000
Set: 3000
Set: 3000
Set: 3000
Set: 3000
Set: 3000
Set: 3000
Set: 3000
Set: 3000
Set: 3000
Set: 3000
Set: 3000
Set: 3000
Set: 3000
Set: 3000
Set: 3000
Set: 3000
Set: 3000
Set: 3000
Set: 3000
Set: 3000
Set: 3000
Set: 3000
Set: 3000
Set: 3000
Set: 3000
Set: 3000
Set: 3000
Set: 3000
Set: 3000
Set: 3000
Set: 3000
Set: 3000
Set: 3000
Set: 3000
Set: 3000
Set: 3000
Set: 3000
Set: 3000
Set: 3000
Set: 3000
Set: 3000
Set: 3000
Set: 3000
Set: 3000
Set: 3000
Set: 3000
Set: 3000
Set: 3000
Set: 3000
Set: 3000
Set: 3000
Set: 3000
Set: 3000
Set: 3000
Set: 3000
Set: 3000
Set: 3000
Set: 3000
Set: 3000
Set: 3000
Set: 3000
Set: 3000
Set: 3000
Set: 3000
Set: 3000
Set: 3000
Set: 3000
Set: 3000
Set: 3000
Set: 3000
Set: 3000
Set: 3000
Set: 3000
Set: 3000
Set: 3000
Set: 3000
Set: 3000
Set: 3000
Set: 3000
Set: 3000
Set: 3000
Set: 3000
Set: 3000
Set: 3000
Set: 3000
Set: 3000
Set: 3000
Set: 3000
Set: 3000
Set: 3000
Set: 3000
Set: 3000
Set: 3000
Set: 3000
Set: 3000
Set: 3000
Set: 3000
Set: 3000
Set: 3000
Set: 3000
Set: 3000
Set: 3000
Set: 3000
Set: 3000
Set: 3000
Set: 3000
Set: 3000
Set: 3000
Set: 3000
Set: 3000
Set: 3000
Set: 3000
Set: 3000
Set: 3000
Set: 3000
Set: 3000
Set: 3000
Set: 3000
Set: 3000
Set: 3000
Set: 3000
Set: 3000
Set: 3000
Set: 3000
Set: 3000
Set: 3000
Set: 3000
Set: 3000
Set: 3000
Set: 3000
Set: 3000
Set: 3000
Set: 3000
Set: 3000
Set: 3000
Set: 3000
Set: 3000
Set: 3000
Set: 3000
Set: 3000
Set: 3000
Set: 3000
Set: 3000
Set: 3000
Set: 3000
Set: 3000
Set: 3000
Set: 3000
Set: 3000
Set: 3000
Set: 3000
Set: 3000
Set: 3000
Set: 3000
Set: 3000
Set: 3000
Set: 3000
Set: 3000
Set: 3000
Set: 3000
Set: 3000
Set: 3000
Set: 3000
Set: 3000
Set: 3000
Set: 3000
Set: 3000
Set: 3000
Set: 3000
Set: 3000
Set: 3000
Set: 3000
Set: 3000
Set: 3000
Set: 3000
Set: 3000
Set: 3000
Set: 3000
Set: 3000
Set: 3000
Set: 3000
Set: 3000
Set: 3000
Set: 3000
Set: 3000
Set: 3000
Set: 3000
Set: 3000
Set: 3000
Set: 3000
Set: 3000
Set: 3000
Set: 3000
Set: 3000
Set: 3000
Set: 3000
Set: 3000
Set: 3000
Set: 3000
Set: 3000
Set: 3000
Set: 3000
Set: 3000
Set: 3000
Set: 3000
Set: 3000
Set: 3000
Set: 3000
Set: 3000
Set: 3000
Set: 3000
Set: 3000
Set: 3000
Set: 3000
Set: 3000
Set: 3000
Set: 3000
Set: 3000
Set: 3000
Set: 3000
Set: 3000
Set: 3000
Set: 3000
Set: 3000
Set: 3000
Set: 3000
Set: 3000
Set: 3000
Set: 3000
Set: 3000
Set: 3000
Set: 3000
Set: 3000
Set: 3000
Set: 3000
Set: 3000
Set: 3000
Set: 3000
Set: 3000
Set: 3000
Set: 3000
Set: 3000
Set: 3000
Set: 3000
Set: 3000
Set: 3000
Set: 3000
Set: 3000
Set: 3000
Set: 3000
Set: 3000
Set: 3000
Set: 3000
Set: 3000
Set: 3000
Set: 3000
Set: 3000
Set: 3000
Set: 3000
Set: 3000
Set: 3000
Set: 3000
Set: 3000
Set: 3000
Set: 3000
Set: 3000
Set: 3000
Set: 3000
Set: 3000
Set: 3000
Set: 3000
Set: 3000
Set: 3000
Set: 3000
Set: 3000
Set: 3000
Set: 3000
Set: 3000
Set: 3000
Set: 3000
Set: 3000
Set: 3000
Set: 3000
Set: 3000
Set: 3000
Set: 3000
Set: 3000
Set: 3000
Set: 3000
Set: 3000
Set: 3000
Set: 3000
Set: 3000
Set: 3000
Set: 3000
Set: 3000
Set: 3000
Set: 3000
Set: 3000
Set: 3000
Set: 3000
Set: 3000
Set: 3000
Set: 3000
Set: 3000
Set: 3000
Set: 3000
Set: 3000
Set: 3000
Set: 3000
Set: 3000
Set: 3000
Set: 3000
Set: 3000
Set: 3000
Set: 3000
Set: 3000
Set: 3000
Set: 3000
Set: 3000
Set: 3000
Set: 3000
Set: 3000
Set: 3000
Set: 3000
Set: 3000
Set: 3000
Set: 3000
Set: 3000
Set: 3000
Set: 3000
Set: 3000
Set: 3000
Set: 3000
Set: 3000
Set: 3000
Set: 3000
Set: 3000
Set: 3000
Set: 3000
Set: 3000
Set: 3000
Set: 3000
Set: 3000
Set: 3000
Set: 3000
Set: 3000
Set: 3000
Set: 3000
Set: 3000
Set: 3000
Set: 3000
Set: 3000
Set: 3000
Set: 3000
Set: 3000
Set: 3000
Set: 3000
Set: 3000
Set: 3000
Set: 3000
Set: 3000
Set: 3000
Set: 3000
Set: 3000
Set: 3000
Set: 3000
Set: 3000
Set: 3000
Set: 3000
Set: 3000
Set: 3000
Set: 3000
Set: 3000
Set: 3000
Set: 3000
Set: 3000
Set: 3000
Set: 3000
Set: 3000
Set: 3000
Set: 3000
Set: 3000
Set: 3000
Set: 3000
Set: 3000
Set: 3000
Set: 3000
Set: 3000
Set: 3000
Set: 3000
Set: 3000
Set: 3000
Set: 3000
Set: 3000
Set: 3000
Set: 3000
Set: 3000
Set: 3000
Set: 3000
Set: 3000
Set: 3000
Set: 3000
Set: 3000
Set: 3000
Set: 3000
Set: 3000
Set: 3000
Set: 3000
Set: 3000
Set: 3000
Set: 3000
Set: 3000
Set: 3000
Set: 3000
Set: 3000
Set: 3000
Set: 3000
Set: 3000
Set: 3000
Set: 3000
Set: 3000
Set: 3000
Set: 3000
Set: 3000
Set: 3000
Set: 3000
Set: 3000
Set: 3000
Set: 3000
Set: 3000
Set: 3000
Set: 3000
Set: 3000
Set: 3000
Set: 3000
Set: 3000
Set: 3000
Set: 3000
Set: 3000
Set: 3000
Set: 3000
Set: 3000
Set: 3000
Set: 3000
Set: 3000
Set: 3000
Set: 3000
Set: 3000
Set: 3000
Set: 3000
Set: 3000
Set: 3000
Set: 3000
Set: 3000
Set: 3000
Set: 3000
Set: 3000
Set: 3000
Set: 3000
Set: 3000
Set: 3000
Set: 3000
Set: 3000
Set: 3000
Set: 3000
Set: 3000
Set: 3000
Set: 3000
Set: 3000
Set: 3000
Set: 3000
Set: 3000
Set: 3000
Set: 3000
Set: 3000
Set: 3000
Set: 3000
Set: 3000
Set: 3000
Set: 3000
Set: 3000
Set: 3000
Set: 3000
Set: 3000
Set: 3000
Set: 3000
Set: 3000
Set: 3000
Set: 3000
Set: 3000
Set: 3000
Set: 3000
Set: 3000
Set: 3000
Set: 3000
Set: 3000
Set: 3000
Set: 3000
Set: 3000
Set: 3000
Set: 3000
Set: 3000
Set: 3000
Set: 3000
Set: 3000
Set: 3000
Set: 3000
Set: 3000
Set: 3000
Set: 3000
Set: 3000
Set: 3000
Set: 3000
Set: 3000
Set: 3000
Set: 3000
Set: 3000
Set: 3000
Set: 3000
Set: 3000
Set: 3000
Set: 3000
Set: 3000
Set: 3000
Set: 3000
Set: 3000
Set: 3000
Set: 3000
Set: 3000
Set: 3000
Set: 3000
Set: 3000
Set: 3000
Set: 3000
Set: 3000
Set: 3000
Set: 3000
Set: 3000
Set: 3000
Set: 3000
Set: 3000
Set: 3000
Set: 3000
Set: 3000
Set: 3000
Set: 3000
Set: 3000
Set: 3000
Set: 3000
Set: 3000
Set: 3000
Set: 3000
Set: 3000
Set: 3000
Set: 3000
Set: 3000
Set: 3000
Set: 3000
Set: 3000
Set: 3000
Set: 3000
Set: 3000
Set: 3000
Set: 3000
Set: 3000
Set: 3000
Set: 3000
Set: 3000
Set: 3000
Set: 3000
Set: 3000
Set: 3000
Set: 3000
Set: 3000
Set: 3000
Set: 3000
Set: 3000
Set: 3000
Set: 3000
Set: 3000
Set: 3000
Set: 3000
Set: 3000
Set: 3000
Set: 3000
Set: 3000
Set: 3000
Set: 3000
Set: 3000
Set: 3000
Set: 3000
Set: 3000
Set: 3000
Set: 3000
Set: 3000
Set: 3000
Set: 3000
Set: 3000
Set: 3000
Set: 3000
Set: 3000
Set: 3000
Set: 3000
Set: 3000
Set: 3000
Set: 3000
Set: 3000
Set: 3000
Set: 3000
Set: 3000
Set: 3000
Set: 3000
Set: 3000
Set: 3000
Set: 3000
Set: 3000
Set: 3000
Set: 3000
Set: 3000
Set: 3000
Set: 3000
Set: 3000
Set: 3000
Set: 3000
Set: 3000
Set: 3000
Set: 3000
Set: 3000
Set: 3000
Set: 3000
Set: 3000
Set: 3000
Set: 3000
Set: 3000
Set: 3000
Set: 3000
Set: 3000
Set: 3000
Set: 3000
Set: 3000
Set: 3000
Set: 3000
Set: 3000
Set: 3000
Set: 3000
Set: 3000
Set: 3000
Set: 3000
Set: 3000
Set: 3000
Set: 3000
Set: 3000
Set: 3000
Set: 3000
Set: 3000
Set: 3000
Set: 3000
Set: 3000
Set: 3000
Set: 3000
Set: 3000
Set: 3000
Set: 3000
Set: 3000
Set: 3000
Set: 3000
Set: 3000
Set: 3000
Set: 3000
Set: 3000
Set: 3000
Set: 3000
Set: 3000
Set: 3000
Set: 3000
Set: 3000
Set: 3000
Set: 3000
Set: 3000
Set: 3000
Set: 3000
Set: 3000
Set: 3000
Set: 3000
Set: 3000
Set: 3000
Set: 3000
Set: 3000
Set: 3000
Set: 3000
Set: 3000
Set: 3000
Set: 3000
Set: 3000
Set: 3000
Set: 3000
Set: 3000
Set: 3000
Set: 3000
Set: 3000
Set: 3000
Set: 3000
Set: 3000
Set: 3000
Set: 3000
Set: 3000
Set: 3000
Set: 3000
Set: 3000
Set: 3000
Set: 3000
Set: 3000
Set: 3000
Set: 3000
Set: 3000
Set: 3000
Set: 3000
Set: 3000
Set: 3000
Set: 3000
Set: 3000
Set: 3000
Set: 3000
Set: 3000
Set: 3000
Set: 3000
Set: 3000
Set: 3000
Set: 3000
Set: 3000
Set: 3000
Set: 3000
Set: 3000
Set: 3000
Set: 3000
Set: 3000
Set: 3000
Set: 3000
Set: 3000
Set: 3000
Set: 3000
Set: 3000
Set: 3000
Set: 3000
Set: 3000
Set: 3000
Set: 3000
Set: 3000
Set: 3000
Set: 3000
Set: 3000
Set: 3000
Set: 3000
Set: 3000
Set: 3000
Set: 3000
Set: 3000
Set: 3000
Set: 3000
Set: 3000
Set: 3000
Set: 3000
Set: 3000
Set: 3000
Set: 3000
Set: 3000
Set: 3000
Set: 3000
Set: 3000
Set: 3000
Set: 3000
Set: 3000
Set: 3000
Set: 3000
Set: 3000
Set: 3000
Set: 3000
Set: 3000
Set: 3000
Set: 3000
Set: 3000
Set: 3000
Set: 3000
Set: 3000
Set: 3000
Set: 3000
Set: 3000
Set: 3000
Set: 3000
Set: 3000
Set: 3000
Set: 3000
Set: 3000
Set: 3000
Set: 3000
Set: 3000
Set: 3000
Set: 3000
Set: 3000
Set: 3000
Set: 3000
Set: 3000
Set: 3000
Set: 3000
Set: 3000
Set: 3000
Set: 3000
Set: 3000
Set: 3000
Set: 3000
Set: 3000
Set: 3000
Set: 3000
Set: 3000
Set: 3000
Set: 3000
Set: 3000
Set: 3000
Set: 3000
Set: 3000
Set: 3000
Set: 3000
Set: 3000
Set: 3000
Set: 3000
Set: 3000
Set: 3000
Set: 3000
Set: 3000
Set: 3000
Set: 3000
Set: 3000
Set: 3000
Set: 3000
Set: 3000
Set: 3000
Set: 3000
Set: 3000
Set: 3000
Set: 3000
Set: 3000
Set: 3000
Set: 3000
Set: 3000
Set: 3000
Set: 3000
Set: 3000
Set: 3000
Set: 3000
Set: 3000
Set: 3000
Set: 3000
Set: 3000
Set: 3000
Set: 3000
Set: 3000
Set: 3000
Set: 3000
Set: 3000
Set: 3000
Set: 3000
Set: 3000
Set: 3000
Set: 3000
Set: 3000
Set: 3000
Set: 3000
Set: 3000
Set: 3000
Set: 3000
Set: 3000
Set: 3000
Set: 3000
Set: 3000
Set: 3000
Set: 3000
Set: 3000
Set: 3000
Set: 3000
Set: 3000
Set: 3000
Set: 3000
Set: 3000
Set: 3000
Set: 3000
Set: 3000
Set: 3000
Set: 3000
Set: 3000
Set: 3000
Set: 3000
Set: 3000
Set: 3000
Set: 3000
Set: 3000
Set: 3000
Set: 3000
Set: 3000
Set: 3000
Set: 3000
Set: 3000
Set: 3000
Set: 3000
Set: 3000
Set: 3000
Set: 3000
Set: 3000
Set: 3000
Set: 3000
Set: 3000
Set: 3000
Set: 3000
Set: 3000
Set: 3000
Set: 3000
Set: 3000
Set: 3000
Set: 3000
Set: 3000
Set: 3000
Set: 3000
Set: 3000
Set: 3000
Set: 3000
Set: 3000
Set: 3000
Set: 3000
Set: 3000
Set: 3000
Set: 3000
Set: 3000
Set: 3000
Set: 3000
Set: 3000
Set: 3000
Set: 3000
Set: 3000
Set: 3000
Set: 3000
Set: 3000
Set: 3000
Set: 3000
Set: 3000
Set: 3000
Set: 3000
Set: 3000
Set: 3000
Set: 3000
Set: 3000
Set: 3000
Set: 3000
Set: 3000
Set: 3000
Set: 3000
Set: 3000
Set: 3000
Set: 3000
Set: 3000
Set: 3000
Set: 3000
Set: 3000
Set: 3000
Set: 3000
Set: 3000
Set: 3000
Set: 3000
Set: 3000
Set: 3000
Set: 3000
Set: 3000
Set: 3000
Set: 3000
Set: 3000
Set: 3000
Set: 3000
Set: 3000
Set: 3000
Set: 3000
Set: 3000
Set: 3000
Set: 3000
Set: 3000
Set: 3000
Set: 3000
Set: 3000
Set: 3000
Set: 3000
Set: 3000
Set: 3000
Set: 3000
Set: 3000
Set: 3000
Set: 3000
Set: 3000
Set: 3000
Set: 3000
Set: 3000
Set: 3000
Set: 3000
Set: 3000
Set: 3000
Set: 3000
Set: 3000
Set: 3000
Set: 3000
Set: 3000
Set: 3000
Set: 3000
Set: 3000
Set: 3000
Set: 3000
Set: 3000
Set: 3000
Set: 3000
Set: 3000
Set: 3000
Set: 3000
Set: 3000
Set: 3000
Set: 3000
Set: 3000
Set: 3000
Set: 3000
Set: 3000
Set: 3000
Set: 3000
Set: 3000
Set: 3000
Set: 3000
Set: 3000
Set: 3000
Set: 3000
Set: 3000
Set: 3000
Set: 3000
Set: 3000
Set: 3000
Set: 3000
Set: 3000
Set: 3000
Set: 3000
Set: 3000
Set: 3000
Set: 3000
Set: 3000
Set: 3000
Set: 3000
Set: 3000
Set: 3000
Set: 3000
Set: 3000
Set: 3000
Set: 3000
Set: 3000
Set: 3000
Set: 3000
Set: 3000
Set: 3000
Set: 3000
Set: 3000
Set: 3000
Set: 3000
Set: 3000
Set: 3000
Set: 3000
Set: 3000
Set: 3000
Set: 3000
Set: 3000
Set: 3000
Set: 3000
Set: 3000
Set: 3000
Set: 3000
Set: 3000
Set: 3000
Set: 3000
Set: 3000
Set: 3000
Set: 3000
Set: 3000
Set: 3000
Set: 3000
Set: 3000
Set: 3000
Set: 3000
Set: 3000
Set: 3000
Set: 3000
Set: 3000
Set: 3000
Set: 3000
Set: 3000
Set: 3000
Set: 3000
Set: 3000
Set: 3000
Set: 3000
Set: 3000
Set: 3000
Set: 3000
Set: 3000
Set: 3000
Set: 3000
Set: 3000
Set: 3000
Set: 3000
Set: 3000
Set: 3000
Set: 3000
Set: 3000
Set: 3000
Set: 3000
Set: 3000
Set: 3000
Set: 3000
Set: 3000
Set: 3000
Set: 3000
Set: 3000
Set: 3000
Set: 3000
Set: 3000
Set: 3000
Set: 3000
Set: 3000
Set: 3000
Set: 3000
Set: 3000
Set: 3000
Set: 3000
Set: 3000
Set: 3000
Set: 3000
Set: 3000
Set: 3000
Set: 3000
Set: 3000
Set: 3000
Set: 3000
Set: 3000
Set: 3000
Set: 3000
Set: 3000
Set: 3000
Set: 3000
Set: 3000
Set: 3000
Set: 3000
Set: 3000
Set: 3000
Set: 3000
Set: 3000
Set: 3000
Set: 3000
Set: 3000
Set: 3000
Set: 3000
Set: 3000
Set: 3000
Set: 3000
Set: 3000
Set: 3000
Set: 3000
Set: 3000
Set: 3000
Set: 3000
Set: 3000
Set: 3000
Set: 3000
Set: 3000
Set: 3000
Set: 3000
Set: 3000
Set: 3000
Set: 3000
Set: 3000
Set: 3000
Set: 3000
Set: 3000
Set: 3000
Set: 3000
Set: 3000
Set: 3000
Set: 3000
Set: 3000
Set: 3000
Set: 3000
Set: 3000
Set: 3000
Set: 3000
Set: 3000
Set: 3000
Set: 3000
Set: 3000
Set: 3000
Set: 3000
Set: 3000
Set: 3000
Set: 3000
Set: 3000
Set: 3000
Set: 3000
Set: 3000
Set: 3000
Set: 3000
Set: 3000
Set: 3000
Set: 3000
Set: 3000
Set: 3000
Set: 3000
Set: 3000
Set: 3000
Set: 3000
Set: 3000
Set: 3000
Set: 3000
Set: 3000
Set: 3000
Set: 3000
Set: 3000
Set: 3000
Set: 3000
Set: 3000
Set: 3000
Set: 3000
Set: 3000
Set: 3000
Set: 3000
Set: 3000
Set: 3000
Set: 3000
Set: 3000
Set: 3000
Set: 3000
Set: 3000
Set: 3000
Set: 3000
Set: 3000
Set: 3000
Set: 3000
Set: 3000
Set: 3000
Set: 3000
Set: 3000
Set: 3000
Set: 3000
Set: 3000
Set: 3000
Set: 3000
Set: 3000
Set: 3000
Set: 3000
Set: 3000
Set: 3000
Set: 3000
Set: 3000
Set: 3000
Set: 3000
Set: 3000
Set: 3000
Set: 3000
Set: 3000
Set: 3000
Set: 3000
Set: 3000
Set: 3000
Set: 3000
Set: 3000
Set: 3000
Set: 3000
Set: 3000
Set: 3000
Set: 3000
Set: 3000
Set: 3000
Set: 3000
Set: 3000
Set: 3000
Set: 3000
Set: 3000
Set: 3000
Set: 3000
Set: 3000
Set: 3000
Set: 3000
Set: 3000
Set: 3000
Set: 3000
Set: 3000
Set: 3000
Set: 3000
Set: 3000
Set: 3000
Set: 3000
Set: 3000
Set: 3000
Set: 3000
Set: 3000
Set: 3000
Set: 3000
Set: 3000
Set: 3000
Set: 3000
Set: 3000
Set: 3000
Set: 3000
Set: 3000
Set: 3000
Set: 3000
Set: 3000
Set: 3000
Set: 3000
Set: 3000
Set: 3000
Set: 3000
Set: 3000
Set: 3000
Set: 3000
Set: 3000
Set: 3000
Set: 3000
Set: 3000
Set: 3000
Set: 3000
Set: 3000
Set: 3000
Set: 3000
Set: 3000
Set: 3000
Set: 3000
Set: 3000
Set: 3000
Set: 3000
Set: 3000
Set: 3000
Set: 3000
Set: 3000
Set: 3000
Set: 3000
Set: 3000
Set: 3000
Set: 3000
Set: 3000
Set: 3000
Set: 3000
Set: 3000
Set: 3000
Set: 3000
Set: 3000
Set: 3000
Set: 3000
Set: 3000
Set: 3000
Set: 3000
Set: 3000
Set: 3000
Set: 3000
Set: 3000
Set: 3000
Set: 3000
Set: 3000
Set: 3000
Set: 3000
Set: 3000
Set: 3000
Set: 3000
Set: 3000
Set: 3000
Set: 3000
Set: 3000
Set: 3000
Set: 3000
Set: 3000
Set: 3000
Set: 3000
Set: 3000
Set: 3000
Set: 3000
Set: 3000
Set: 3000
Set: 3000
Set: 3000
Set: 3000
Set: 3000
Set: 3000
Set: 3000
Set: 3000
Set: 3000
Set: 3000
Set: 3000
Set: 3000
Set: 3000
Set: 3000
Set: 3000
Set: 3000
Set: 3000
Set: 3000
Set: 3000
Set: 3000
Set: 3000
Set: 3000
Set: 3000
Set: 3000
Set: 3000
Set: 3000
Set: 3000
Set: 3000
Set: 3000
Set: 3000
Set: 3000
Set: 3000
Set: 3000
Set: 3000
Set: 3000
Set: 3000
Set: 3000
Set: 3000
Set: 3000
Set: 3000
Set: 3000
Set: 3000
Set: 3000
Set: 3000
Set: 3000
Set: 3000
Set: 3000
Set: 3000
Set: 3000
Set: 3000
Set: 3000
Set: 3000
Set: 3000
Set: 3000
Set: 3000
Set: 3000
Set: 3000
Set: 3000
Set: 3000
Set: 3000
Set: 3000
Set: 3000
Set: 3000
Set: 3000
Set: 3000
Set: 3000
Set: 3000
Set: 3000
Set: 3000
Set: 3000
Set: 3000
Set: 3000
Set: 3000
Set: 3000
Set: 3000
Set: 3000
Set: 3000
Set: 3000
Set: 3000
Set: 3000
Set: 3000
Set: 3000
Set: 3000
Set: 3000
Set: 3000
Set: 3000
Set: 3000
Set: 3000
Set: 3000
Set: 3000
Set: 3000
Set: 3000
Set: 3000
Set: 3000
Set: 3000
Set: 3000
Set: 3000
Set: 3000
Set: 3000
Set: 3000
Set: 3000
Set: 3000
Set: 3000
Set: 3000
Set: 3000
Set: 3000
Set: 3000
Set: 3000
Set: 3000
Set: 3000
Set: 3000
Set: 3000
Set: 3000
Set: 3000
Set: 3000
Set: 3000
Set: 3000
Set: 3000
Set: 3000
Set: 3000
Set: 3000
Set: 3000
Set: 3000
Set: 3000
Set: 3000
Set: 3000
Set: 3000
Set: 3000
Set: 3000
Set: 3000
Set: 3000
Set: 3000
Set: 3000
Set: 3000
Set: 3000
Set: 3000
Set: 3000
Set: 3000
Set: 3000
Set: 3000
Set: 3000
Set: 3000
Set: 3000
Set: 3000
Set: 3000
Set: 3000
Set: 3000
Set: 3000
Set: 3000
Set: 3000
Set: 3000
Set: 3000
Set: 3000
Set: 3000
Set: 3000
Set: 3000
Set: 3000
Set: 3000
Set: 3000
Set: 3000
Set: 3000
Set: 3000
Set: 3000
Set: 3000
Set: 3000
Set: 3000
Set: 3000
Set: 3000
Set: 3000
Set: 3000
Set: 3000
Set: 3000
Set: 3000
Set: 3000
Set: 3000
Set: 3000
Set: 3000
Set: 3000
Set: 3000
Set: 3000
Set: 3000
Set: 3000
Set: 3000
Set: 3000
Set: 3000
Set: 3000
Set: 3000
Set: 3000
Set: 3000
Set: 3000
Set: 3000
Set: 3000
Set: 3000
Set: 3000
Set: 3000
Set: 3000
Set: 3000
Set: 3000
Set: 3000
Set: 3000
Set: 3000
Set: 3000
Set: 3000
Set: 3000
Set: 3000
Set: 3000
Set: 3000
Set: 3000
Set: 3000
Set: 3000
Set: 3000
Set: 3000
Set: 3000
Set: 3000
Set: 3000
Set: 3000
Set: 3000
Set: 3000
Set: 3000
Set: 3000
Set: 3000
Set: 3000
Set: 3000
Set: 3000
Set: 3000
Set: 3000
Set: 3000
Set: 3000
Set: 3000
Set: 3000
Set: 3000
Set: 3000
Set: 3000
Set: 3000
Set: 3000
Set: 3000
Set: 3000
Set: 3000
Set: 3000
Set: 3000
Set: 3000
Set: 3000
Set: 3000
Set: 3000
Set: 3000
Set: 3000
Set: 3000
Set: 3000
Set: 3000
Set: 3000
Set: 3000
Set: 3000
Set: 3000
Set: 3000
Set: 3000
Set: 3000
Set: 3000
Set: 3000
Set: 3000
Set: 3000
Set: 3000
Set: 3000
Set: 3000
Set: 3000
Set: 3000
Set: 3000
Set: 3000
Set: 3000
Set: 3000
Set: 3000
Set: 3000
Set: 3000
Set: 3000
Set: 3000
Set: 3000
Set: 3000
Set: 3000
Set: 3000
Set: 3000
Set: 3000
Set: 3000
Set: 3000
Set: 3000
Set: 3000
Set: 3000
Set: 3000
Set: 3000
Set: 3000
Set: 3000
Set: 3000
Set: 3000
Set: 3000
Set: 3000
Set: 3000
Set: 3000
Set: 3000
Set: 3000
Set: 3000
Set: 3000
Set: 3000
Set: 3000
Set: 3000
Set: 3000
Set: 3000
Set: 3000
Set: 3000
Set: 3000
Set: 3000
Set: 3000
Set: 3000
Set: 3000
Set: 3000
Set: 3000
Set: 3000
Set: 3000
Set: 3000
Set: 3000
Set: 3000
Set: 3000
Set: 3000
Set: 3000
Set: 3000
Set: 3000
Set: 3000
Set: 3000
Set: 3000
Set: 3000
Set: 3000
Set: 3000
Set: 3000
Set: 3000
Set: 3000
Set: 3000
Set: 3000
Set: 3000
Set: 3000
Set: 3000
Set: 3000
Set: 3000
Set: 3000
Set: 3000
Set: 3000
Set: 3000
Set: 3000
Set: 3000
Set: 3000
Set: 3000
Set: 3000
Set: 3000
Set: 3000
Set: 3000
Set: 3000
Set: 3000
Set: 3000
Set: 3000
Set: 3000
Set: 3000
Set: 3000
Set: 3000
Set: 3000
Set: 3000
Set: 3000
Set: 3000
Set: 3000
Set: 3000
Set: 3000
Set: 3000
Set: 3000
Set: 3000
Set: 3000
Set: 3000
Set: 3000
Set: 3000
Set: 3000
Set: 3000
Set: 3000
Set: 3000
Set: 3000
Set: 3000
Set: 3000
Set: 3000
Set: 3000
Set: 3000
Set: 3000
Set: 3000
Set: 3000
Set: 3000
Set: 3000
Set: 3000
Set: 3000
Set: 3000
Set: 3000
Set: 3000
Set: 3000
Set: 3000
Set: 3000
Set: 3000
Set: 3000
Set: 3000
Set: 3000
Set: 3000
Set: 3000
Set: 3000
Set: 3000
Set: 3000
Set: 3000
Set: 3000
Set: 3000
Set: 3000
Set: 3000
Set: 3000
Set: 3000
Set: 3000
Set: 3000
Set: 3000
Set: 3000
Set: 3000
Set: 3000
Set: 3000
Set: 3000
Set: 3000
Set: 3000
Set: 3000
Set: 3000
Set: 3000
Set: 3000
Set: 3000
Set: 3000
Set: 3000
Set: 3000
Set: 3000
Set: 3000
Set: 3000
Set: 3000
Set: 3000
Set: 3000
Set: 3000
Set: 3000
Set: 3000
Set: 3000
Set: 3000
Set: 3000
Set: 3000
Set: 3000
Set: 3000
Set: 3000
Set: 3000
Set: 3000
Set: 3000
Set: 3000
Set: 3000
Set: 3000
Set: 3000
Set: 3000
Set: 3000
Set: 3000
Set: 3000
Set: 3000
Set: 3000
Set: 3000
Set: 3000
Set: 3000
Set: 3000
Set: 3000
Set: 3000
Set: 3000
Set: 3000
Set: 3000
Set: 3000
Set: 3000
Set: 3000
Set: 3000
Set: 3000
Set: 3000
Set: 3000
Set: 3000
Set: 3000
Set: 3000
Set: 3000
Set: 3000
Set: 3000
Set: 3000
Set: 3000
Set: 3000
Set: 3000
Set: 3000
Set: 3000
Set: 3000
Set: 3000
Set: 3000
Set: 3000
Set: 3000
Set: 3000
Set: 3000
Set: 3000
Set: 3000
Set: 3000
Set: 3000
Set: 3000
Set: 3000
Set: 3000
Set: 3000
Set: 3000
Set: 3000
Set: 3000
Set: 3000
Set: 3000
Set: 3000
Set: 3000
Set: 3000
Set: 3000
Set: 3000
Set: 3000
Set: 3000
Set: 3000
Set: 3000
Set: 3000
Set: 3000
Set: 3000
Set: 3000
Set: 3000
Set: 3000
Set: 3000
Set: 3000
Set: 3000
Set: 3000
Set: 3000
Set: 3000
Set: 3000
Set: 3000
Set: 3000
Set: 3000
Set: 3000
Set: 3000
Set: 3000
Set: 3000
Set: 3000
Set: 3000
Set: 3000
Set: 3000
Set: 3000
Set: 3000
Set: 3000
Set: 3000
Set: 3000
Set: 3000
Set: 3000
Set: 3000
Set: 3000
Set: 3000
Set: 3000
Set: 3000
Set: 3000
Set: 3000
Set: 3000
Set: 3000
Set: 3000
Set: 3000
Set: 3000
Set: 3000
Set: 3000
Set: 3000
Set: 3000
Set: 3000
Set: 3000
Set: 3000
Set: 3000
Set: 3000
Set: 3000
Set: 3000
Set: 3000
Set: 3000
Set: 3000
Set: 3000
Set: 3000
Set: 3000
Set: 3000
Set: 3000
Set: 3000
Set: 3000
Set: 3000
Set: 3000
Set: 3000
Set: 3000
Set: 3000
Set: 3000
Set: 3000
Set: 3000
Set: 3000
Set: 3000
Set: 3000
Set: 3000
Set: 3000
Set: 3000
Set: 3000
Set: 3000
Set: 3000
Set: 3000
Set: 3000
Set: 3000
Set: 3000
Set: 3000
Set: 3000
Set: 3000
Set: 3000
Set: 3000
Set: 3000
Set: 3000
Set: 3000
Set: 3000
Set: 3000
Set: 3000
Set: 3000
Set: 3000
Set: 3000
Set: 3000
Set: 3000
Set: 3000
Set: 3000
Set: 3000
Set: 3000
Set: 3000
Set: 3000
Set: 3000
Set: 3000
Set: 3000
Set: 3000
Set: 3000
Set: 3000
Set: 3000
Set: 3000
Set: 3000
Set: 3000
Set: 3000
Set: 3000
Set: 3000
Set: 3000
Set: 3000
Set: 3000
Set: 3000
Set: 3000
Set: 3000
Set: 3000
Set: 3000
Set: 3000
Set: 3000
Set: 3000
Set: 3000
Set: 3000
Set: 3000
Set: 3000
Set: 3000
Set: 3000
Set: 3000
Set: 3000
Set: 3000
Set: 3000
Set: 3000
Set: 3000
Set: 3000
Set: 3000
Set: 3000
Set: 3000
Set: 3000
Set: 3000
Set: 3000
Set: 3000
Set: 3000
Set: 3000
Set: 3000
Set: 3000
Set: 3000
Set: 3000
Set: 3000
Set: 3000
Set: 3000
Set: 3000
Set: 3000
Set: 3000
Set: 3000
Set: 3000
Set: 3000
Set: 3000
Set: 3000
Set: 3000
Set: 3000
Set: 3000
Set: 3000
Set: 3000
Set: 3000
Set: 3000
Set: 3000
Set: 3000
Set: 3000
Set: 3000
Set: 3000
Set: 3000
Set: 3000
Set: 3000
Set: 3000
Set: 3000
Set: 3000
Set: 3000
Set: 3000
Set: 3000
Set: 3000
Set: 3000
Set: 3000
Set: 3000
Set: 3000
Set: 3000
Set: 3000
Set: 3000
Set: 3000
Set: 3000
Set: 3000
Set: 3000
Set: 3000
Set: 3000
Set: 3000
Set: 3000
Set: 3000
Set: 3000
Set: 3000
Set: 3000
Set: 3000
Set: 3000
Set: 3000
Set: 3000
Set: 3000
Set: 3000
Set: 3000
Set: 3000
Set: 3000
Set: 3000
Set: 3000
Set: 3000
Set: 3000
Set: 3000
Set: 3000
Set: 3000
Set: 3000
Set: 3000
Set: 3000
Set: 3000
Set: 3000
Set: 3000
Set: 3000
Set: 3000
Set: 3000
Set: 3000
Set: 3000
Set: 3000
Set: 3000
Set: 3000
Set: 3000
Set: 3000
Set: 3000
Set: 3000
Set: 3000
Set: 3000
Set: 3000
Set: 3000
Set: 3000
Set: 3000
Set: 3000
Set: 3000
Set: 3000
Set: 3000
Set: 3000
Set: 3000
Set: 3000
Set: 3000
Set: 3000
Set: 3000
Set: 3000
Set: 3000
Set: 3000
Set: 3000
Set: 3000
Set: 3000
Set: 3000
Set: 3000
Set: 3000
Set: 3000
Set: 3000
Set: 3000
Set: 3000
Set: 3000
Set: 3000
Set: 3000
Set: 3000
Set: 3000
Set: 3000
Set: 3000
Set: 3000
Set: 3000
Set: 3000
Set: 3000
Set: 3000
Set: 3000
Set: 3000
Set: 3000
Set: 3000
Set: 3000
Set: 3000
Set: 3000
Set: 3000
Set: 3000
Set: 3000
Set: 3000
Set: 3000
Set: 3000
Set: 3000
Set: 3000
Set: 3000
Set: 3000
Set: 3000
Set: 3000
Set: 3000
Set: 3000
Set: 3000
Set: 3000
Set: 3000
Set: 3000
Set: 3000
Set: 3000
Set: 3000
Set: 3000
Set: 3000
Set: 3000
Set: 3000
Set: 3000
Set: 3000
Set: 3000
Set: 3000
Set: 3000
Set: 3000
Set: 3000
Set: 3000
Set: 3000
Set: 3000
Set: 3000
Set: 3000
Set: 3000
Set: 3000
Set: 3000
Set: 3000
Set: 3000
Set: 3000
Set: 3000
Set: 3000
Set: 3000
Set: 3000
Set: 3000
Set: 3000
Set: 3000
Set: 3000
Set: 3000
Set: 3000
Set: 3000
Set: 3000
Set: 3000
Set: 3000
Set: 3000
Set: 3000
Set: 3000
Set: 3000
Set: 3000
Set: 3000
Set: 3000
Set: 3000
Set: 3000
Set: 3000
Set: 3000
Set: 3000
Set: 3000
Set: 3000
Set: 3000
Set: 3000
Set: 3000
Set: 3000
Set: 3000
Set: 3000
Set: 3000
Set: 3000
Set: 3000
Set: 3000
Set: 3000
Set: 3000
Set: 3000
Set: 3000
Set: 3000
Set: 3000
Set: 3000
Set: 3000
Set: 3000
Set: 3000
Set: 3000
Set: 3000
Set: 3000
Set: 3000
Set: 3000
Set: 3000
Set: 3000
Set: 3000
Set: 3000
Set: 3000
Set: 3000
Set: 3000
Set: 3000
Set: 3000
Set: 3000
Set: 3000
Set: 3000
Set: 3000
Set: 3000
Set: 3000
Set: 3000
Set: 3000
Set: 3000
Set: 3000
Set: 3000
Set: 3000
Set: 3000
Set: 3000
Set: 3000
Set: 3000
Set: 3000
Set: 3000
Set: 3000
Set: 3000
Set: 3000
Set: 3000
Set: 3000
Set: 3000
Set: 3000
Set: 3000
Set: 3000
Set: 3000
Set: 3000
Set: 3000
Set: 3000
Set: 3000
Set: 3000
Set: 3000
Set: 3000
Set: 3000
Set: 3000
Set: 3000
Set: 3000
Set: 3000
Set: 3000
Set: 3000
Set: 3000
Set: 3000
Set: 3000
Set: 3000
Set: 3000
Set: 3000
Set: 3000
Set: 3000
Set: 3000
Set: 3000
Set: 3000
Set: 3000
Set: 3000
Set: 3000
Set: 3000
Set: 3000
Set: 3000
Set: 3000
Set: 3000
Set: 3000
Set: 3000
Set: 3000
Set: 3000
Set: 3000
Set: 3000
Set: 3000
Set: 3000
Set: 3000
Set: 3000
Set: 3000
Set: 3000
Set: 3000
Set: 3000
Set: 3000
Set: 3000
Set: 3000
Set: 3000
Set: 3000
Set: 3000
Set: 3000
Set: 3000
Set: 3000
Set: 3000
Set: 3000
Set: 3000
Set: 3000
Set: 3000
Set: 3000
Set: 3000
Set: 3000
Set: 3000
Set: 3000
Set: 3000
Set: 3000
Set: 3000
Set: 3000
Set: 3000
Set: 3000
Set: 3000
Set: 3000
Set: 3000
Set: 3000
Set: 3000
Set: 3000
Set: 3000
Set: 3000
Set: 3000
Set: 3000
Set: 3000
Set: 3000
Set: 3000
Set: 3000
Set: 3000
Set: 3000
Set: 3000
Set: 3000
Set: 3000
Set: 3000
Set: 3000
Set: 3000
Set: 3000
Set: 3000
Set: 3000
Set: 3000
Set: 3000
Set: 3000
Set: 3000
Set: 3000
Set: 3000
Set: 3000
Set: 3000
Set: 3000
Set: 3000
Set: 3000
Set: 3000
Set: 3000
Set: 3000
Set: 3000
Set: 3000
Set: 3000
Set: 3000
Set: 3000
Set: 3000
Set: 3000
Set: 3000
Set: 3000
Set: 3000
Set: 3000
Set: 3000
Set: 3000
Set: 3000
Set: 3000
Set: 3000
Set: 3000
Set: 3000
Set: 3000
Set: 3000
Set: 3000
Set: 3000
Set: 3000
Set: 3000
Set: 3000
Set: 3000
Set: 3000
Set: 3000
Set: 3000
Set: 3000
Set: 3000
Set: 3000
Set: 3000
Set: 3000
Set: 3000
Set: 3000
Set: 3000
Set: 3000
Set: 3000
Set: 3000
Set: 3000
Set: 3000
Set: 3000
Set: 3000
Set: 3000
Set: 3000
Set: 3000
Set: 3000
Set: 3000
Set: 3000
Set: 3000
Set: 3000
Set: 3000
Set: 3000
Set: 3000
Set: 3000
Set: 3000
Set: 3000
Set: 3000
Set: 3000
Set: 3000
Set: 3000
Set: 3000
Set: 3000
Set: 3000
Set: 3000
Set: 3000
Set: 3000
Set: 3000
Set: 3000
Set: 3000
Set: 3000
Set: 3000
Set: 3000
Set: 3000
Set: 3000
Set: 3000
Set: 3000
Set: 3000
Set: 3000
Set: 3000
Set: 3000
Set: 3000
Set: 3000
Set: 3000
Set: 3000
Set: 3000
Set: 3000
Set: 3000
Set: 3000
Set: 3000
Set: 3000
Set: 3000
Set: 3000
Set: 3000
Set: 3000
Set: 3000
Set: 3000
Set: 3000
Set: 3000
Set: 3000
Set: 3000
Set: 3000
Set: 3000
Set: 3000
Set: 3000
Set: 3000
Set: 3000
Set: 3000
Set: 3000
Set: 3000
Set: 3000
Set: 3000
Set: 3000
Set: 3000
Set: 3000
Set: 3000
Set: 3000
Set: 3000
Set: 3000
Set: 3000
Set: 3000
Set: 3000
Set: 3000
Set: 3000
Set: 3000
Set: 3000
Set: 3000
Set: 3000
Set: 3000
Set: 3000
Set: 3000
Set: 3000
Set: 3000
Set: 3000
Set: 3000
Set: 3000
Set: 3000
Set: 3000
Set: 3000
Set: 3000
Set: 3000
Set: 3000
Set: 3000
Set: 3000
Set: 3000
Set: 3000
Set: 3000
Set: 3000
Set: 3000
Set: 3000
Set: 3000
Set: 3000
Set: 3000
Set: 3000
Set: 3000
Set: 3000
Set: 3000
Set: 3000
Set: 3000
Set: 3000
Set: 3000
Set: 3000
Set: 3000
Set: 3000
Set: 3000
Set: 3000
Set: 3000
Set: 3000
Set: 3000
Set: 3000
Set: 3000
Set: 3000
Set: 3000
Set: 3000
Set: 3000
Set: 3000
Set: 3000
Set: 3000
Set: 3000
Set: 3000
Set: 3000
Set: 3000
Set: 3000
Set: 3000
Set: 3000
Set: 3000
Set: 3000
Set: 3000
Set: 3000
Set: 3000
Set: 3000
Set: 3000
Set: 3000
Set: 3000
Set: 3000
Set: 3000
Set: 3000
Set: 3000
Set: 3000
Set: 3000
Set: 3000
Set: 3000
Set: 3000
Set: 3000
Set: 3000
Set: 3000
Set: 3000
Set: 3000
Set: 3000
Set: 3000
Set: 3000
Set: 3000
Set: 3000
Set: 3000
Set: 3000
Set: 3000
Set: 3000
Set: 3000
Set: 3000
Set: 3000
Set: 3000
Set: 3000
Set: 3000
Set: 3000
Set: 3000
Set: 3000
Set: 3000
Set: 3000
Set: 3000
Set: 3000
Set: 3000
Set: 3000
Set: 3000
Set: 3000
Set: 3000
Set: 3000
Set: 3000
Set: 3000
Set: 3000
Set: 3000
Set: 3000
Set: 3000
Set: 3000
Set: 3000
Set: 3000
Set: 3000
Set: 3000
Set: 3000
Set: 3000
Set: 3000
Set: 3000
Set: 3000
Set: 3000
Set: 3000
Set: 3000
Set: 3000
Set: 3000
Set: 3000
Set: 3000
Set: 3000
Set: 3000
Set: 3000
Set: 3000
Set: 3000
Set: 3000
Set: 3000
Set: 3000
Set: 3000
Set: 3000
Set: 3000
Set: 3000
Set: 3000
Set: 3000
Set: 3000
Set: 3000
Set: 3000
Set: 3000
Set: 3000
Set: 3000
Set: 3000
Set: 3000
Set: 3000
Set: 3000
Set: 3000
Set: 3000
Set: 3000
Set: 3000
Set: 3000
Set: 3000
Set: 3000
Set: 3000
Set: 3000
Set: 3000
Set: 3000
Set: 3000
Set: 3000
Set: 3000
Set: 3000
Set: 3000
Set: 3000
Set: 3000
Set: 3000
Set: 3000
Set: 3000
Set: 3000
Set: 3000
Set: 3000
Set: 3000
Set: 3000
Set: 3000
Set: 3000
Set: 3000
Set: 3000
Set: 3000
Set: 3000
Set: 3000
Set: 3000
Set: 3000
Set: 3000
Set: 3000
Set: 3000
Set: 3000
Set: 3000
Set: 3000
Set: 3000
Set: 3000
Set: 3000
Set: 3000
Set: 3000
Set: 3000
Set: 3000
Set: 3000
Set: 3000
Set: 3000
Set: 3000
Set: 3000
Set: 3000
Set: 3000
Set: 3000
Set: 3000
Set: 3000
Set: 3000
Set: 3000
Set: 3000
Set: 3000
Set: 3000
Set: 3000
Set: 3000
Set: 3000
Set: 3000
Set: 3000
Set: 3000
Set: 3000
Set: 3000
Set: 3000
Set: 3000
Set: 3000
Set: 3000
Set: 3000
Set: 3000
Set: 3000
Set: 3000
Set: 3000
Set: 3000
Set: 3000
Set: 3000
Set: 3000
Set: 3000
Set: 3000
Set: 3000
Set: 3000
Set: 3000
Set: 3000
Set: 3000
Set: 3000
Set: 3000
Set: 3000
Set: 3000
Set: 3000
Set: 3000
Set: 3000
Set: 3000
Set: 3000
Set: 3000
Set: 3000
Set: 3000
Set: 3000
Set: 3000
Set: 3000
Set: 3000
Set: 3000
Set: 3000
Set: 3000
Set: 3000
Set: 3000
Set: 3000
Set: 3000
Set: 3000
Set: 3000
Set: 3000
Set: 3000
Set: 3000
Set: 3000
Set: 3000
Set: 3000
Set: 3000
Set: 3000
Set: 3000
Set: 3000
Set: 3000
Set: 3000
Set: 3000
Set: 3000
Set: 3000
Set: 3000
Set: 3000
Set: 3000
Set: 3000
Set: 3000
Set: 3000
Set: 3000
Set: 3000
Set: 3000
Set: 3000
Set: 3000
Set: 3000
Set: 3000
Set: 3000
Set: 3000
Set: 3000
Set: 3000
Set: 3000
Set: 3000
Set: 3000
Set: 3000
Set: 3000
Set: 3000
Set: 3000
Set: 3000
Set: 3000
Set: 3000
Set: 3000
Set: 3000
Set: 3000
Set: 3000
Set: 3000
Set: 3000
Set: 3000
Set: 3000
Set: 3000
Set: 3000
Set: 3000
Set: 3000
Set: 3000
Set: 3000
Set: 3000
Set: 3000
Set: 3000
Set: 3000
Set: 3000
Set: 3000
Set: 3000
Set: 3000
Set: 3000
Set: 3000
Set: 3000
Set: 3000
Set: 3000
Set: 3000
Set: 3000
Set: 3000
Set: 3000
Set: 3000
Set: 3000
Set: 3000
Set: 3000
Set: 3000
Set: 3000
Set: 3000
Set: 3000
Set: 3000
Set: 3000
Set: 3000
Set: 3000
Set: 3000
Set: 3000
Set: 3000
Set: 3000
Set: 3000
Set: 3000
Set: 3000
Set: 3000
Set: 3000
Set: 3000
Set: 3000
Set: 3000
Set: 3000
Set: 3000
Set: 3000
Set: 3000
Set: 3000
Set: 3000
Set: 3000
Set: 3000
Set: 3000
Set: 3000
Set: 3000
Set: 3000
Set: 3000
Set: 3000
Set: 3000
Set: 3000
Set: 3000
Set: 3000
Set: 3000
Set: 3000
Set: 3000
Set: 3000
Set: 3000
Set: 3000
Set: 3000
Set: 3000
Set: 3000
Set: 3000
Set: 3000
Set: 3000
Set: 3000
Set: 3000
Set: 3000
Set: 3000
Set: 3000
Set: 3000
Set: 3000
Set: 3000
Set: 3000
Set: 3000
Set: 3000
Set: 3000
Set: 3000
Set: 3000
Set: 3000
Set: 3000
Set: 3000
Set: 3000
Set: 3000
Set: 3000
Set: 3000
Set: 3000
Set: 3000
Set: 3000
Set: 3000
Set: 3000
Set: 3000
Set: 3000
Set: 3000
Set: 3000
Set: 3000
Set: 3000
Set: 3000
Set: 3000
Set: 3000
Set: 3000
Set: 3000
Set: 3000
Set: 3000
Set: 3000
Set: 3000
Set: 3000
Set: 3000
Set: 3000
Set: 3000
Set: 3000
Set: 3000
Set: 3000
Set: 3000
Set: 3000
Set: 3000
Set: 3000
Set: 3000
Set: 3000
Set: 3000
Set: 3000
Set: 3000
Set: 3000
Set: 3000
Set: 3000
Set: 3000
Set: 3000
Set: 3000
Set: 3000
Set: 3000
Set: 3000
Set: 3000
Set: 3000
Set: 3000
Set: 3000
Set: 3000
Set: 3000
Set: 3000
Set: 3000
Set: 3000
Set: 3000
Set: 3000
Set: 3000
Set: 3000
Set: 3000
Set: 3000
Set: 3000
Set: 3000
Set: 3000
Set: 3000
Set: 3000
Set: 3000
Set: 3000
Set: 3000
Set: 3000
Set: 3000
Set: 3000
Set: 3000
Set: 3000
Set: 3000
Set: 3000
Set: 3000
Set: 3000
Set: 3000
Set: 3000
Set: 3000
Set: 3000
Set: 3000
Set: 3000
Set: 3000
Set: 3000
Set: 3000
Set: 3000
Set: 3000
Set: 3000
Set: 3000
Set: 3000
Set: 3000
Set: 3000
Set: 3000
Set: 3000
Set: 3000
Set: 3000
Set: 3000
Set: 3000
Set: 3000
Set: 3000
Set: 3000
Set: 3000
Set: 3000
Set: 3000
Set: 3000
Set: 3000
Set: 3000
Set: 3000
Set: 3000
Set: 3000
Set: 3000
Set: 3000
Set: 3000
Set: 3000
Set: 3000
Set: 3000
Set: 3000
Set: 3000
Set: 3000
Set: 3000
Set: 3000
Set: 3000
Set: 3000
Set: 3000
Set: 3000
Set: 3000
Set: 3000
Set: 3000
Set: 3000
Set: 3000
Set: 3000
Set: 3000
Set: 3000
Set: 3000
Set: 3000
Set: 3000
Set: 3000
Set: 3000
Set: 3000
Set: 3000
Set: 3000
Set: 3000
Set: 3000
Set: 3000
Set: 3000
Set: 3000
Set: 3000
Set: 3000
Set: 3000
Set: 3000
Set: 3000
Set: 3000
Set: 3000
Set: 3000
Set: 3000
Set: 3000
Set: 3000
Set: 3000
Set: 3000
Set: 3000
Set: 3000
Set: 3000
Set: 3000
Set: 3000
Set: 3000
Set: 3000
Set: 3000
Set: 3000
Set: 3000
Set: 3000
Set: 3000
Set: 3000
Set: 3000
Set: 3000
Set: 3000
Set: 3000
Set: 3000
Set: 3000
Set: 3000
Set: 3000
Set: 3000
Set: 3000
Set: 3000
Set: 3000
Set: 3000
Set: 3000
Set: 3000
Set: 3000
Set: 3000
Set: 3000
Set: 3000
Set: 3000
Set: 3000
Set: 3000
Set: 3000
Set: 3000
Set: 3000
Set: 3000
Set: 3000
Set: 3000
Set: 3000
Set: 3000
Set: 3000
Set: 3000
Set: 3000
Set: 3000
Set: 3000
Set: 3000
Set: 3000
Set: 3000
Set: 3000
Set: 3000
Set: 3000
Set: 3000
Set: 3000
Set: 3000
Set: 3000
Set: 3000
Set: 3000
Set: 3000
Set: 3000
Set: 3000
Set: 3000
Set: 3000
Set: 3000
Set: 3000
Set: 3000
Set: 3000
Set: 3000
Set: 3000
Set: 3000
Set: 3000
Set: 3000
Set: 3000
Set: 3000
Set: 3000
Set: 3000
Set: 3000
Set: 3000
Set: 3000
Set: 3000
Set: 3000
Set: 3000
Set: 3000
Set: 3000
Set: 3000
Set: 3000
Set: 3000
Set: 3000
Set: 3000
Set: 3000
Set: 3000
Set: 3000
Set: 3000
Set: 3000
Set: 3000
Set: 3000
Set: 3000
Set: 3000
Set: 3000
Set: 3000
Set: 3000
Set: 3000
Set: 3000
Set: 3000
Set: 3000
Set: 3000
Set: 3000
Set: 3000
Set: 3000
Set: 3000
Set: 3000
Set: 3000
Set: 3000
Set: 3000
Set: 3000
Set: 3000
Set: 3000
Set: 3000
Set: 3000
Set: 3000
Set: 3000
Set: 3000
Set: 3000
Set: 3000
Set: 3000
Set: 3000
Set: 3000
Set: 3000
Set: 3000
Set: 3000
Set: 3000
Set: 3000
Set: 3000
Set: 3000
Set: 3000
Set: 3000
Set: 3000
Set: 3000
Set: 3000
Set: 3000
Set: 3000
Set: 3000
Set: 3000
Set: 3000
Set: 3000
Set: 3000
Set: 3000
Set: 3000
Set: 3000
Set: 3000
Set: 3000
Set: 3000
Set: 3000
Set: 3000
Set: 3000
Set: 3000
Set: 3000
Set: 3000
Set: 3000
Set: 3000
Set: 3000
Set: 3000
Set: 3000
Set: 3000
Set: 3000
Set: 3000
Set: 3000
Set: 3000
Set: 3000
Set: 3000
Set: 3000
Set: 3000
Set: 3000
Set: 3000
Set: 3000
Set: 3000
Set: 3000
Set: 3000
Set: 3000
Set: 3000
Set: 3000
Set: 3000
Set: 3000
Set: 3000
Set: 3000
Set: 3000
Set: 3000
Set: 3000
Set: 3000
Set: 3000
Set: 3000
Set: 3000
Set: 3000
Set: 3000
Set: 3000
Set: 3000
Set: 3000
Set: 3000
Set: 3000
Set: 3000
Set: 3000
Set: 3000
Set: 3000
Set: 3000
Set: 3000
Set: 3000
Set: 3000
Set: 3000
Set: 3000
Set: 3000
Set: 3000
Set: 3000
Set: 3000
Set: 3000
Set: 3000
Set: 3000
Set: 3000
Set: 3000
Set: 3000
Set: 3000
Set: 3000
Set: 3000
Set: 3000
Set: 3000
Set: 3000
Set: 3000
Set: 3000
Set: 3000
Set: 3000
Set: 3000
Set: 3000
Set: 3000
Set: 3000
Set: 3000
Set: 3000
Set: 3000
Set: 3000
Set: 3000
Set: 3000
Set: 3000
Set: 3000
Set: 3000
Set: 3000
Set: 3000
Set: 3000
Set: 3000
Set: 3000
Set: 3000
Set: 3000
Set: 3000
Set: 3000
Set: 3000
Set: 3000
Set: 3000
Set: 3000
Set: 3000
Set: 3000
Set: 3000
Set: 3000
Set: 3000
Set: 3000
Set: 3000
Set: 3000
Set: 3000
Set: 3000
Set: 3000
Set: 3000
Set: 3000
Set: 3000
Set: 3000
Set: 3000
Set: 3000
Set: 3000
Set: 3000
Set: 3000
Set: 3000
Set: 3000
Set: 3000
Set: 3000
Set: 3000
Set: 3000
Set: 3000
Set: 3000
Set: 3000
Set: 3000
Set: 3000
Set: 3000
Set: 3000
Set: 3000
Set: 3000
Set: 3000
Set: 3000
Set: 3000
Set: 3000
Set: 3000
Set: 3000
Set: 3000
Set: 3000
Set: 3000
Set: 3000
Set: 3000
Set: 3000
Set: 3000
Set: 3000
Set: 3000
Set: 3000
Set: 3000
Set: 3000
Set: 3000
Set: 3000
Set: 3000
Set: 3000
Set: 3000
Set: 3000
Set: 3000
Set: 3000
Set: 3000
Set: 3000
Set: 3000
Set: 3000
Set: 3000
Set: 3000
Set: 3000
Set: 3000
Set: 3000
Set: 3000
Set: 3000
Set: 3000
Set: 3000
Set: 3000
Set: 3000
Set: 3000
Set: 3000
Set: 3000
Set: 3000
Set: 3000
Set: 3000
Set: 3000
Set: 3000
Set: 3000
Set: 3000
Set: 3000
Set: 3000
Set: 3000
Set: 3000
Set: 3000
Set: 3000
Set: 3000
Set: 3000
Set: 3000
Set: 3000
Set: 3000
Set: 3000
Set: 3000
Set: 3000
Set: 3000
Set: 3000
Set: 3000
Set: 3000
Set: 3000
Set: 3000
Set: 3000
Set: 3000
Set: 3000
Set: 3000
Set: 3000
Set: 3000
Set: 3000
Set: 3000
Set: 3000
Set: 3000
Set: 3000
Set: 3000
Set: 3000
Set: 3000
Set: 3000
Set: 3000
Set: 3000
Set: 3000
Set: 3000
Set: 3000
Set: 3000
Set: 3000
Set: 3000
Set: 3000
Set: 3000
Set: 3000
Set: 3000
Set: 3000
Set: 3000
Set: 3000
Set: 3000
Set: 3000
Set: 3000
Set: 3000
Set: 3000
Set: 3000
Set: 3000
Set: 3000
Set: 3000
Set: 3000
Set: 3000
Set: 3000
Set: 3000
Set: 3000
Set: 3000
Set: 3000
Set: 3000
Set: 3000
Set: 3000
Set: 3000
Set: 3000
Set: 3000
Set: 3000
Set: 3000
Set: 3000
Set: 3000
Set: 3000
Set: 3000
Set: 3000
Set: 3000
Set: 3000
Set: 3000
Set: 3000
Set: 3000
Set: 3000
Set: 3000
Set: 3000
Set: 3000
Set: 3000
Set: 3000
Set: 3000
Set: 3000
Set: 3000
Set: 3000
Set: 3000
Set: 3000
Set: 3000
Set: 3000
Set: 3000
Set: 3000
Set: 3000
Set: 3000
Set: 3000
Set: 3000
Set: 3000
Set: 3000
Set: 3000
Set: 3000
Set: 3000
Set: 3000
Set: 3000
Set: 3000
Set: 3000
Set: 3000
Set: 3000
Set: 3000
Set: 3000
Set: 3000
Set: 3000
Set: 3000
Set: 3000
Set: 3000
Set: 3000
Set: 3000
Set: 3000
Set: 3000
Set: 3000
Set: 3000
Set: 3000
Set: 3000
Set: 3000
Set: 3000
Set: 3000
Set: 3000
Set: 3000
Set: 3000
Set: 3000
Set: 3000
Set: 3000
Set: 3000
Set: 3000
Set: 3000
Set: 3000
Set: 3000
Set: 3000
Set: 3000
Set: 3000
Set: 3000
Set: 3000
Set: 3000
Set: 3000
Set: 3000
Set: 3000
Set: 3000
Set: 3000
Set: 3000
Set: 3000
Set: 3000
Set: 3000
Set: 3000
Set: 3000
Set: 3000
Set: 3000
Set: 3000
Set: 3000
Set: 3000
Set: 3000
Set: 3000
Set: 3000
Set: 3000
Set: 3000
Set: 3000
Set: 3000
Set: 3000
Set: 3000
Set: 3000
Set: 3000
Set: 3000
Set: 3000
Set: 3000
Set: 3000
Set: 3000
Set: 3000
Set: 3000
Set: 3000
Set: 3000
Set: 3000
Set: 3000
Set: 3000
Set: 3000
Set: 3000
Set: 3000
Set: 3000
Set: 3000
Set: 3000
Set: 3000
Set: 3000
Set: 3000
Set: 3000
Set: 3000
Set: 3000
Set: 3000
Set: 3000
Set: 3000
Set: 3000
Set: 3000
Set: 3000
Set: 3000
Set: 3000
Set: 3000
Set: 3000
Set: 3000
Set: 3000
Set: 3000
Set: 3000
Set: 3000
Set: 3000
Set: 3000
Set: 3000
Set: 3000
Set: 3000
Set: 3000
Set: 3000
Set: 3000
Set: 3000
Set: 3000
Set: 3000
Set: 3000
Set: 3000
Set: 3000
Set: 3000
Set: 3000
Set: 3000
Set: 3000
Set: 3000
Set: 3000
Set: 3000
Set: 3000
Set: 3000
Set: 3000
Set: 3000
Set: 3000
Set: 3000
Set: 3000
Set: 3000
Set: 3000
Set: 3000
Set: 3000
Set: 3000
Set: 3000
Set: 3000
Set: 3000
Set: 3000
Set: 3000
Set: 3000
Set: 3000
Set: 3000
Set: 3000
Set: 3000
Set: 3000
Set: 3000
Set: 3000
Set: 3000
Set: 3000
Set: 3000
Set: 3000
Set: 3000
Set: 3000
Set: 3000
Set: 3000
Set: 3000
Set: 3000
Set: 3000
Set: 3000
Set: 3000
Set: 3000
Set: 3000
Set: 3000
Set: 3000
Set: 3000
Set: 3000
Set: 3000
Set: 3000
Set: 3000
Set: 3000
Set: 3000
Set: 3000
Set: 3000
Set: 3000
Set: 3000
Set: 3000
Set: 3000
Set: 3000
Set: 3000
Set: 3000
Set: 3000
Set: 3000
Set: 3000
Set: 3000
Set: 3000
Set: 3000
Set: 3000
Set: 3000
Set: 3000
Set: 3000
Set: 3000
Set: 3000
Set: 3000
Set: 3000
Set: 3000
Set: 3000
Set: 3000
Set: 3000
Set: 3000
Set: 3000
Set: 3000
Set: 3000
Set: 3000
Set: 3000
Set: 3000
Set: 3000
Set: 3000
Set: 3000
Set: 3000
Set: 3000
Set: 3000
Set: 3000
Set: 3000
Set: 3000
Set: 3000
Set: 3000
Set: 3000
Set: 3000
Set: 3000
Set: 3000
Set: 3000
Set: 3000
Set: 3000
Set: 3000
Set: 3000
Set: 3000
Set: 3000
Set: 3000
Set: 3000
Set: 3000
Set: 3000
Set: 3000
Set: 3000
Set: 3000
Set: 3000
Set: 3000
Set: 3000
Set: 3000
Set: 3000
Set: 3000
Set: 3000
Set: 3000
Set: 3000
Set: 3000
Set: 3000
Set: 3000
Set: 3000
Set: 3000
Set: 3000
Set: 3000
Set: 3000
Set: 3000
Set: 3000
Set: 3000
Set: 3000
Set: 3000
Set: 3000
Set: 3000
Set: 3000
Set: 3000
Set: 3000
Set: 3000
Set: 3000
Set: 3000
Set: 3000
Set: 3000
Set: 3000
Set: 3000
Set: 3000
Set: 3000
Set: 3000
Set: 3000
Set: 3000
Set: 3000
Set: 3000
Set: 3000
Set: 3000
Set: 3000
Set: 3000
Set: 3000
Set: 3000
Set: 3000
Set: 3000
Set: 3000
Set: 3000
Set: 3000
Set: 3000
Set: 3000
Set: 3000
Set: 3000
Set: 3000
Set: 3000
Set: 3000
Set: 3000
Set: 3000
Set: 3000
Set: 3000
Set: 3000
Set: 3000
Set: 3000
Set: 3000
Set: 3000
Set: 3000
Set: 3000
Set: 3000
Set: 3000
Set: 3000
Set: 3000
Set: 3000
Set: 3000
Set: 3000
Set: 3000
Set: 3000
Set: 3000
Set: 3000
Set: 3000
Set: 3000
Set: 3000
Set: 3000
Set: 3000
Set: 3000
Set: 3000
Set: 3000
Set: 3000
Set: 3000
Set: 3000
Set: 3000
Set: 3000
Set: 3000
Set: 3000
Set: 3000
Set: 3000
Set: 3000
Set: 3000
Set: 3000
Set: 3000
Set: 3000
Set: 3000
Set: 3000
Set: 3000
Set: 3000
Set: 3000
Set: 3000
Set: 3000
Set: 3000
Set: 3000
Set: 3000
Set: 3000
Set: 3000
Set: 3000
Set: 3000
Set: 3000
Set: 3000
Set: 3000
Set: 3000
Set: 3000
Set: 3000
Set: 3000
Set: 3000
Set: 3000
Set: 3000
Set: 3000
Set: 3000
Set: 3000
Set: 3000
Set: 3000
Set: 3000
Set: 3000
Set: 3000
Set: 3000
Set: 3000
Set: 3000
Set: 3000
Set: 3000
Set: 3000
Set: 3000
Set: 3000
Set: 3000
Set: 3000
Set: 3000
Set: 3000
Set: 3000
Set: 3000
Set: 3000
Set: 3000
Set: 3000
Set: 3000
Set: 3000
Set: 3000
Set: 3000
Set: 3000
Set: 3000
Set: 3000
Set: 3000
Set: 3000
Set: 3000
Set: 3000
Set: 3000
Set: 3000
Set: 3000
Set: 3000
Set: 3000
Set: 3000
Set: 3000
Set: 3000
Set: 3000
Set: 3000
Set: 3000
Set: 3000
Set: 3000
Set: 3000
Set: 3000
Set: 3000
Set: 3000
Set: 3000
Set: 3000
Set: 3000
Set: 3000
Set: 3000
Set: 3000
Set: 3000
Set: 3000
Set: 3000
Set: 3000
Set: 3000
Set: 3000
Set: 3000
Set: 3000
Set: 3000
Set: 3000
Set: 3000
Set: 3000
Set: 3000
Set: 3000
Set: 3000
Set: 3000
Set: 3000
Set: 3000
Set: 3000
Set: 3000
Set: 3000
Set: 3000
Set: 3000
Set: 3000
Set: 3000
Set: 3000
Set: 3000
Set: 3000
Set: 3000
Set: 3000
Set: 3000
Set: 3000
Set: 3000
Set: 3000
Set: 3000
Set: 3000
Set: 3000
Set: 3000
Set: 3000
Set: 3000
Set: 3000
Set: 3000
Set: 3000
Set: 3000
Set: 3000
Set: 3000
Set: 3000
Set: 3000
Set: 3000
Set: 3000
Set: 3000
Set: 3000
Set: 3000
Set: 3000
Set: 3000
Set: 3000
Set: 3000
Set: 3000
Set: 3000
Set: 3000
Set: 3000
Set: 3000
Set: 3000
Set: 3000
Set: 3000
Set: 3000
Set: 3000
Set: 3000
Set: 3000
Set: 3000
Set: 3000
Set: 3000
Set: 3000
Set: 3000
Set: 3000
Set: 3000
Set: 3000
Set: 3000
Set: 3000
Set: 3000
Set: 3000
Set: 3000
Set: 3000
Set: 3000
Set: 3000
Set: 3000
Set: 3000
Set: 3000
Set: 3000
Set: 3000
Set: 3000
Set: 3000
Set: 3000
Set: 3000
Set: 3000
Set: 3000
Set: 3000
Set: 3000
Set: 3000
Set: 3000
Set: 3000
Set: 3000
Set: 3000
Set: 3000
Set: 3000
Set: 3000
Set: 3000
Set: 3000
Set: 3000
Set: 3000
Set: 3000
Set: 3000
Set: 3000
Set: 3000
Set: 3000
Set: 3000
Set: 3000
Set: 3000
Set: 3000
Set: 3000
Set: 3000
Set: 3000
Set: 3000
Set: 3000
Set: 3000
Set: 3000
Set: 3000
Set: 3000
Set: 3000
Set: 3000
Set: 3000
Set: 3000
Set: 3000
Set: 3000
Set: 3000
Set: 3000
Set: 3000
Set: 3000
Set: 3000
Set: 3000
Set: 3000
Set: 3000
Set: 3000
Set: 3000
Set: 3000
Set: 3000
Set: 3000
Set: 3000
Set: 3000
Set: 3000
Set: 3000
Set: 3000
Set: 3000
Set: 3000
Set: 3000
Set: 3000
Set: 3000
Set: 3000
Set: 3000
Set: 3000
Set: 3000
Set: 3000
Set: 3000
Set: 3000
Set: 3000
Set: 3000
Set: 3000
Set: 3000
Set: 3000
Set: 3000
Set: 3000
Set: 3000
Set: 3000
Set: 3000
Set: 3000
Set: 3000
Set: 3000
Set: 3000
Set: 3000
Set: 3000
Set: 3000
Set: 3000
Set: 3000
Set: 3000
Set: 3000
Set: 3000
Set: 3000
Set: 3000
Set: 3000
Set: 3000
Set: 3000
Set: 3000
Set: 3000
Set: 3000
Set: 3000
Set: 3000
Set: 3000
Set: 3000
Set: 3000
Set: 3000
Set: 3000
Set: 3000
Set: 3000
Set: 3000
Set: 3000
Set: 3000
Set: 3000
Set: 3000
Set: 3000
Set: 3000
Set: 3000
Set: 3000
Set: 3000
Set: 3000
Set: 3000
Set: 3000
Set: 3000
Set: 3000
Set: 3000
Set: 3000
Set: 3000
Set: 3000
Set: 3000
Set: 3000
Set: 3000
Set: 3000
Set: 3000
Set: 3000
Set: 3000
Set: 3000
Set: 3000
Set: 3000
Set: 3000
Set: 3000
Set: 3000
Set: 3000
Set: 3000
Set: 3000
Set: 3000
Set: 3000
Set: 3000
Set: 3000
Set: 3000
Set: 3000
Set: 3000
Set: 3000
Set: 3000
Set: 3000
Set: 3000
Set: 3000
Set: 3000
Set: 3000
Set: 3000
Set: 3000
Set: 3000
Set: 3000
Set: 3000
Set: 3000
Set: 3000
Set: 3000
Set: 3000
Set: 3000
Set: 3000
Set: 3000
Set: 3000
Set: 3000
Set: 3000
Set: 3000
Set: 3000
Set: 3000
Set: 3000
Set: 3000
Set: 3000
Set: 3000
Set: 3000
Set: 3000
Set: 3000
Set: 3000
Set: 3000
Set: 3000
Set: 3000
Set: 3000
Set: 3000
Set: 3000
Set: 3000
Set: 3000
Set: 3000
Set: 3000
Set: 3000
Set: 3000
Set: 3000
Set: 3000
Set: 3000
Set: 3000
Set: 3000
Set: 3000
Set: 3000
Set: 3000
Set: 3000
Set: 3000
Set: 3000
Set: 3000
Set: 3000
Set: 3000
Set: 3000
Set: 3000
Set: 3000
Set: 3000
Set: 3000
Set: 3000
Set: 3000
Set: 3000
Set: 3000
Set: 3000
Set: 3000
Set: 3000
Set: 3000
Set: 3000
Set: 3000
Set: 3000
Set: 3000
Set: 3000
Set: 3000
Set: 3000
Set: 3000
Set: 3000
Set: 3000
Set: 3000
Set: 3000
Set: 3000
Set: 3000
Set: 3000
Set: 3000
Set: 3000
Set: 3000
Set: 3000
Set: 3000
Set: 3000
Set: 3000
Set: 3000
Set: 3000
Set: 3000
Set: 3000
Set: 3000
Set: 3000
Set: 3000
Set: 3000
Set: 3000
Set: 3000
Set: 3000
Set: 3000
Set: 3000
Set: 3000
Set: 3000
Set: 3000
Set: 3000
Set: 3000
Set: 3000
Set: 3000
Set: 3000
Set: 3000
Set: 3000
Set: 3000
Set: 3000
Set: 3000
Set: 3000
Set: 3000
Set: 3000
Set: 3000
Set: 3000
Set: 3000
Set: 3000
Set: 3000
Set: 3000
Set: 3000
Set: 3000
Set: 3000
Set: 3000
Set: 3000
Set: 3000
Set: 3000
Set: 3000
Set: 3000
Set: 3000
Set: 3000
Set: 3000
Set: 3000
Set: 3000
Set: 3000
Set: 3000
Set: 3000
Set: 3000
Set: 3000
Set: 3000
Set: 3000
Set: 3000
Set: 3000
Set: 3000
Set: 3000
Set: 3000
Set: 3000
Set: 3000
Set: 3000
Set: 3000
Set: 3000
Set: 3000
Set: 3000
Set: 3000
Set: 3000
Set: 3000
Set: 3000
Set: 3000
Set: 3000
Set: 3000
Set: 3000
Set: 3000
Set: 3000
Set: 3000
Set: 3000
Set: 3000
Set: 3000
Set: 3000
Set: 3000
Set: 3000
Set: 3000
Set: 3000
Set: 3000
Set: 3000
Set: 3000
Set: 3000
Set: 3000
Set: 3000
Set: 3000
Set: 3000
Set: 3000
Set: 3000
Set: 3000
Set: 3000
Set: 3000
Set: 3000
Set: 3000
Set: 3000
Set: 3000
Set: 3000
Set: 3000
Set: 3000
Set: 3000
Set: 3000
Set: 3000
Set: 3000
Set: 3000
Set: 3000
Set: 3000
Set: 3000
Set: 3000
Set: 3000
Set: 3000
Set: 3000
Set: 3000
Set: 3000
Set: 3000
Set: 3000
Set: 3000
Set: 3000
Set: 3000
Set: 3000
Set: 3000
Set: 3000
Set: 3000
Set: 3000
Set: 3000
Set: 3000
Set: 3000
Set: 3000
Set: 3000
Set: 3000
Set: 3000
Set: 3000
Set: 3000
Set: 3000
Set: 3000
Set: 3000
Set: 3000
Set: 3000
Set: 3000
Set: 3000
Set: 3000
Set: 3000
Set: 3000
Set: 3000
Set: 3000
Set: 3000
Set: 3000
Set: 3000
Set: 3000
Set: 3000
Set: 3000
Set: 3000
Set: 3000
Set: 3000
Set: 3000
Set: 3000
Set: 3000
Set: 3000
Set: 3000
Set: 3000
Set: 3000
Set: 3000
Set: 3000
Set: 3000
Set: 3000
Set: 3000
Set: 3000
Set: 3000
Set: 3000
Set: 3000
Set: 3000
Set: 3000
Set: 3000
Set: 3000
Set: 3000
Set: 3000
Set: 3000
Set: 3000
Set: 3000
Set: 3000
Set: 3000
Set: 3000
Set: 3000
Set: 3000
Set: 3000
Set: 3000
Set: 3000
Set: 3000
Set: 3000
Set: 3000
Set: 3000
Set: 3000
Set: 3000
Set: 3000
Set: 3000
Set: 3000
Set: 3000
Set: 3000
Set: 3000
Set: 3000
Set: 3000
Set: 3000
Set: 3000
Set: 3000
Set: 3000
Set: 3000
Set: 3000
Set: 3000
Set: 3000
Set: 3000
Set: 3000
Set: 3000
Set: 3000
Set: 3000
Set: 3000
Set: 3000
Set: 3000
Set: 3000
Set: 3000
Set: 3000
Set: 3000
Set: 3000
Set: 3000
Set: 3000
Set: 3000
Set: 3000
Set: 3000
Set: 3000
Set: 3000
Set: 3000
Set: 3000
Set: 3000
Set: 3000
Set: 3000
Set: 3000
Set: 3000
Set: 3000
Set: 3000
Set: 3000
Set: 3000
Set: 3000
Set: 3000
Set: 3000
Set: 3000
Set: 3000
Set: 3000
Set: 3000
Set: 3000
Set: 3000
Set: 3000
Set: 3000
Set: 3000
Set: 3000
Set: 3000
Set: 3000
Set: 3000
Set: 3000
Set: 3000
Set: 3000
Set: 3000
Set: 3000
Set: 3000
Set: 3000
Set: 3000
Set: 3000
Set: 3000
Set: 3000
Set: 3000
Set: 3000
Set: 3000
Set: 3000
Set: 3000
Set: 3000
Set: 3000
Set: 3000
Set: 3000
Set: 3000
Set: 3000
Set: 3000
Set: 3000
Set: 3000
Set: 3000
Set: 3000
Set: 3000
Set: 3000
Set: 3000
Set: 3000
Set: 3000
Set: 3000
Set: 3000
Set: 3000
Set: 3000
Set: 3000
Set: 3000
Set: 3000
Set: 3000
Set: 3000
Set: 3000
Set: 3000
Set: 3000
Set: 3000
Set: 3000
Set: 3000
Set: 3000
Set: 3000
Set: 3000
Set: 3000
Set: 3000
Set: 3000
Set: 3000
Set: 3000
Set: 3000
Set: 3000
Set: 3000
Set: 3000
Set: 3000
Set: 3000
Set: 3000
Set: 3000
Set: 3000
Set: 3000
Set: 3000
Set: 3000
Set: 3000
Set: 3000
Set: 3000
Set: 3000
Set: 3000
Set: 3000
Set: 3000
Set: 3000
Set: 3000
Set: 3000
Set: 3000
Set: 3000
Set: 3000
Set: 3000
Set: 3000
Set: 3000
Set: 3000
Set: 3000
Set: 3000
Set: 3000
Set: 3000
Set: 3000
Set: 3000
Set: 3000
Set: 3000
Set: 3000
Set: 3000
Set: 3000
Set: 3000
Set: 3000
Set: 3000
Set: 3000
Set: 3000
Set: 3000
Set: 3000
Set: 3000
Set: 3000
Set: 3000
Set: 3000
Set: 3000
Set: 3000
Set: 3000
Set: 3000
Set: 3000
Set: 3000
Set: 3000
Set: 3000
Set: 3000
Set: 3000
Set: 3000
Set: 3000
Set: 3000
Set: 3000
Set: 3000
Set: 3000
Set: 3000
Set: 3000
Set: 3000
Set: 3000
Set: 3000
Set: 3000
Set: 3000
Set: 3000
Set: 3000
Set: 3000
Set: 3000
Set: 3000
Set: 3000
Set: 3000
Set: 3000
Set: 3000
Set: 3000
Set: 3000
Set: 3000
Set: 3000
Set: 3000
Set: 3000
Set: 3000
Set: 3000
Set: 3000
Set: 3000
Set: 3000
Set: 3000
Set: 3000
Set: 3000
Set: 3000
Set: 3000
Set: 3000
Set: 3000
Set: 3000
Set: 3000
Set: 3000
Set: 3000
Set: 3000
Set: 3000
Set: 3000
Set: 3000
Set: 3000
Set: 3000
Set: 3000
Set: 3000
Set: 3000
Set: 3000
Set: 3000
Set: 3000
Set: 3000
Set: 3000
Set: 3000
Set: 3000
Set: 3000
Set: 3000
Set: 3000
Set: 3000
Set: 3000
Set: 3000
Set: 3000
Set: 3000
Set: 3000
Set: 3000
Set: 3000
Set: 3000
Set: 3000
Set: 3000
Set: 3000
Set: 3000
Set: 3000
Set: 3000
Set: 3000
Set: 3000
Set: 3000
Set: 3000
Set: 3000
Set: 3000
Set: 3000
Set: 3000
Set: 3000
Set: 3000
Set: 3000
Set: 3000
Set: 3000
Set: 3000
Set: 3000
Set: 3000
Set: 3000
Set: 3000
Set: 3000
Set: 3000
Set: 3000
Set: 3000
Set: 3000
Set: 3000
Set: 3000
Set: 3000
Set: 3000
Set: 3000
Set: 3000
Set: 3000
Set: 3000
Set: 3000
Set: 3000
Set: 3000
Set: 3000
Set: 3000
Set: 3000
Set: 3000
Set: 3000
Set: 3000
Set: 3000
Set: 3000
Set: 3000
Set: 3000
Set: 3000
Set: 3000
Set: 3000
Set: 3000
Set: 3000
Set: 3000
Set: 3000
Set: 3000
Set: 3000
Set: 3000
Set: 3000
Set: 3000
Set: 3000
Set: 3000
Set: 3000
Set: 3000
Set: 3000
Set: 3000
Set: 3000
Set: 3000
Set: 3000
Set: 3000
Set: 3000
Set: 3000
Set: 3000
Set: 3000
Set: 3000
Set: 3000
Set: 3000
Set: 3000
Set: 3000
Set: 3000
Set: 3000
Set: 3000
Set: 3000
Set: 3000
Set: 3000
Set: 3000
Set: 3000
Set: 3000
Set: 3000
Set: 3000
Set: 3000
Set: 3000
Set: 3000
Set: 3000
Set: 3000
Set: 3000
Set: 3000
Set: 3000
Set: 3000
Set: 3000
Set: 3000
Set: 3000
Set: 3000
Set: 3000
Set: 3000
Set: 3000
Set: 3000
Set: 3000
Set: 3000
Set: 3000
Set: 3000
Set: 3000
Set: 3000
Set: 3000
Set: 3000
Set: 3000
Set: 3000
Set: 3000
Set: 3000
Set: 3000
Set: 3000
Set: 3000
Set: 3000
Set: 3000
Set: 3000
Set: 3000
Set: 3000
Set: 3000
Set: 3000
Set: 3000
Set: 3000
Set: 3000
Set: 3000
Set: 3000
Set: 3000
Set: 3000
Set: 3000
Set: 3000
Set: 3000
Set: 3000
Set: 3000
Set: 3000
Set: 3000
Set: 3000
Set: 3000
Set: 3000
Set: 3000
Set: 3000
Set: 3000
Set: 3000
Set: 3000
Set: 3000
Set: 3000
Set: 3000
Set: 3000
Set: 3000
Set: 3000
Set: 3000
Set: 3000
Set: 3000
Set: 3000
Set: 3000
Set: 3000
Set: 3000
Set: 3000
Set: 3000
Set: 3000
Set: 3000
Set: 3000
Set: 3000
Set: 3000
Set: 3000
Set: 3000
Set: 3000
Set: 3000
Set: 3000
Set: 3000
Set: 3000
Set: 3000
Set: 3000
Set: 3000
Set: 3000
Set: 3000
Set: 3000
Set: 3000
Set: 3000
Set: 3000
Set: 3000
Set: 3000
Set: 3000
Set: 3000
Set: 3000
Set: 3000
Set: 3000
Set: 3000
Set: 3000
Set: 3000
Set: 3000
Set: 3000
Set: 3000
Set: 3000
Set: 3000
Set: 3000
Set: 3000
Set: 3000
Set: 3000
Set: 3000
Set: 3000
Set: 3000
Set: 3000
Set: 3000
Set: 3000
Set: 3000
Set: 3000
Set: 3000
Set: 3000
Set: 3000
Set: 3000
Set: 3000
Set: 3000
Set: 3000
Set: 3000
Set: 3000
Set: 3000
Set: 3000
Set: 3000
Set: 3000
Set: 3000
Set: 3000
Set: 3000
Set: 3000
Set: 3000
Set: 3000
Set: 3000
Set: 3000
Set: 3000
Set: 3000
Set: 3000
Set: 3000
Set: 3000
Set: 3000
Set: 3000
Set: 3000
Set: 3000
Set: 3000
Set: 3000
Set: 3000
Set: 3000
Set: 3000
Set: 3000
Set: 3000
Set: 3000
Set: 3000
Set: 3000
Set: 3000
Set: 3000
Set: 3000
Set: 3000
Set: 3000
Set: 3000
Set: 3000
Set: 3000
Set: 3000
Set: 3000
Set: 3000
Set: 3000
Set: 3000
Set: 3000
Set: 3000
Set: 3000
Set: 3000
Set: 3000
Set: 3000
Set: 3000
Set: 3000
Set: 3000
Set: 3000
Set: 3000
Set: 3000
Set: 3000
Set: 3000
Set: 3000
Set: 3000
Set: 3000
Set: 3000
Set: 3000
Set: 3000
Set: 3000
Set: 3000
Set: 3000
Set: 3000
Set: 3000
Set: 3000
Set: 3000
Set: 3000
Set: 3000
Set: 3000
Set: 3000
Set: 3000
Set: 3000
Set: 3000
Set: 3000
Set: 3000
Set: 3000
Set: 3000
Set: 3000
Set: 3000
Set: 3000
Set: 3000
Set: 3000
Set: 3000
Set: 3000
Set: 3000
Set: 3000
Set: 3000
Set: 3000
Set: 3000
Set: 3000
Set: 3000
Set: 3000
Set: 3000
Set: 3000
Set: 3000
Set: 3000
Set: 3000
Set: 3000
Set: 3000
Set: 3000
Set: 3000
Set: 3000
Set: 3000
Set: 3000
Set: 3000
Set: 3000
Set: 3000
Set: 3000
Set: 3000
Set: 3000
Set: 3000
Set: 3000
Set: 3000
Set: 3000
Set: 3000
Set: 3000
Set: 3000
Set: 3000
Set: 3000
Set: 3000
Set: 3000
Set: 3000
Set: 3000
Set: 3000
Set: 3000
Set: 3000
Set: 3000
Set: 3000
Set: 3000
Set: 3000
Set: 3000
Set: 3000
Set: 3000
Set: 3000
Set: 3000
Set: 3000
Set: 3000
Set: 3000
Set: 3000
Set: 3000
Set: 3000
Set: 3000
Set: 3000
Set: 3000
Set: 3000
Set: 3000
Set: 3000
Set: 3000
Set: 3000
Set: 3000
Set: 3000
Set: 3000
Set: 3000
Set: 3000
Set: 3000
Set: 3000
Set: 3000
Set: 3000
Set: 3000
Set: 3000
Set: 3000
Set: 3000
Set: 3000
Set: 3000
Set: 3000
Set: 3000
Set: 3000
Set: 3000
Set: 3000
Set: 3000
Set: 3000
Set: 3000
Set: 3000
Set: 3000
Set: 3000
Set: 3000
Set: 3000
Set: 3000
Set: 3000
Set: 3000
Set: 3000
Set: 3000
Set: 3000
Set: 3000
Set: 3000
Set: 3000
Set: 3000
Set: 3000
Set: 3000
Set: 3000
Set: 3000
Set: 3000
Set: 3000
Set: 3000
Set: 3000
Set: 3000
Set: 3000
Set: 3000
Set: 3000
Set: 3000
Set: 3000
Set: 3000
Set: 3000
Set: 3000
Set: 3000
Set: 3000
Set: 3000
Set: 3000
Set: 3000
Set: 3000
Set: 3000
Set: 3000
Set: 3000
Set: 3000
Set: 3000
Set: 3000
Set: 3000
Set: 3000
Set: 3000
Set: 3000
Set: 3000
Set: 3000
Set: 3000
Set: 3000
Set: 3000
Set: 3000
Set: 3000
Set: 3000
Set: 3000
Set: 3000
Set: 3000
Set: 3000
Set: 3000
Set: 3000
Set: 3000
Set: 3000
Set: 3000
Set: 3000
Set: 3000
Set: 3000
Set: 3000
Set: 3000
Set: 3000
Set: 3000
Set: 3000
Set: 3000
Set: 3000
Set: 3000
Set: 3000
Set: 3000
Set: 3000
Set: 3000
Set: 3000
Set: 3000
Set: 3000
Set: 3000
Set: 3000
Set: 3000
Set: 3000
Set: 3000
Set: 3000
Set: 3000
Set: 3000
Set: 3000
Set: 3000
Set: 3000
Set: 3000
Set: 3000
Set: 3000
Set: 3000
Set: 3000
Set: 3000
Set: 3000
Set: 3000
Set: 3000
Set: 3000
Set: 3000
Set: 3000
Set: 3000
Set: 3000
Set: 3000
Set: 3000
Set: 3000
Set: 3000
Set: 3000
Set: 3000
Set: 3000
Set: 3000
Set: 3000
Set: 3000
Set: 3000
Set: 3000
Set: 3000
Set: 3000
Set: 3000
Set: 3000
Set: 3000
Set: 3000
Set: 3000
Set: 3000
Set: 3000
Set: 3000
Set: 3000
Set: 3000
Set: 3000
Set: 3000
Set: 3000
Set: 3000
Set: 3000
Set: 3000
Set: 3000
Set: 3000
Set: 3000
Set: 3000
Set: 3000
Set: 3000
Set: 3000
Set: 3000
Set: 3000
Set: 3000
Set: 3000
Set: 3000
Set: 3000
Set: 3000
Set: 3000
Set: 3000
Set: 3000
Set: 3000
Set: 3000
Set: 3000
Set: 3000
Set: 3000
Set: 3000
Set: 3000
Set: 3000
Set: 3000
Set: 3000
Set: 3000
Set: 3000
Set: 3000
Set: 3000
Set: 3000
Set: 3000
Set: 3000
Set: 3000
Set: 3000
Set: 3000
Set: 3000
Set: 3000
Set: 3000
Set: 3000
Set: 3000
Set: 3000
Set: 3000
Set: 3000
Set: 3000
Set: 3000
Set: 3000
Set: 3000
Set: 3000
Set: 3000
Set: 3000
Set: 3000
Set: 3000
Set: 3000
Set: 3000
Set: 3000
Set: 3000
Set: 3000
Set: 3000
Set: 3000
Set: 3000
Set: 3000
Set: 3000
Set: 3000
Set: 3000
Set: 3000
Set: 3000
Set: 3000
Set: 3000
Set: 3000
Set: 3000
Set: 3000
Set: 3000
Set: 3000
Set: 3000
Set: 3000
Set: 3000
Set: 3000
Set: 3000
Set: 3000
Set: 3000
Set: 3000
Set: 3000
Set: 3000
Set: 3000
Set: 3000
Set: 3000
Set: 3000
Set: 3000
Set: 3000
Set: 3000
Set: 3000
Set: 3000
Set: 3000
Set: 3000
Set: 3000
Set: 3000
Set: 3000
Set: 3000
Set: 3000
Set: 3000
Set: 3000
Set: 3000
Set: 3000
Set: 3000
Set: 3000
Set: 3000
Set: 3000
Set: 3000
Set: 3000
Set: 3000
Set: 3000
Set: 3000
Set: 3000
Set: 3000
Set: 3000
Set: 3000
Set: 3000
Set: 3000
Set: 3000
Set: 3000
Set: 3000
Set: 3000
Set: 3000
Set: 3000
Set: 3000
Set: 3000
Set: 3000
Set: 3000
Set: 3000
Set: 3000
Set: 3000
Set: 3000
Set: 3000
Set: 3000
Set: 3000
Set: 3000
Set: 3000
Set: 3000
Set: 3000
Set: 3000
Set: 3000
Set: 3000
Set: 3000
Set: 3000
Set: 3000
Set: 3000
Set: 3000
Set: 3000
Set: 3000
Set: 3000
Set: 3000
Set: 3000
Set: 3000
Set: 3000
Set: 3000
Set: 3000
Set: 3000
Set: 3000
Set: 3000
Set: 3000
Set: 3000
Set: 3000
Set: 3000
Set: 3000
Set: 3000
Set: 3000
Set: 3000
Set: 3000
Set: 3000
Set: 3000
Set: 3000
Set: 3000
Set: 3000
Set: 3000
Set: 3000
Set: 3000
Set: 3000
Set: 3000
Set: 3000
Set: 3000
Set: 3000
Set: 3000
Set: 3000
Set: 3000
Set: 3000
Set: 3000
Set: 3000
Set: 3000
Set: 3000
Set: 3000
Set: 3000
Set: 3000
Set: 3000
Set: 3000
Set: 3000
Set: 3000
Set: 3000
Set: 3000
Set: 3000
Set: 3000
Set: 3000
Set: 3000
Set: 3000
Set: 3000
Set: 3000
Set: 3000
Set: 3000
Set: 3000
Set: 3000
Set: 3000
Set: 3000
Set: 3000
Set: 3000
Set: 3000
Set: 3000
Set: 3000
Set: 3000
Set: 3000
Set: 3000
Set: 3000
Set: 3000
Set: 3000
Set: 3000
Set: 3000
Set: 3000
Set: 3000
Set: 3000
Set: 3000
Set: 3000
Set: 3000
Set: 3000
Set: 3000
Set: 3000
Set: 3000
Set: 3000
Set: 3000
Set: 3000
Set: 3000
Set: 3000
Set: 3000
Set: 3000
Set: 3000
Set: 3000
Set: 3000
Set: 3000
Set: 3000
Set: 3000
Set: 3000
Set: 3000
Set: 3000
Set: 3000
Set: 3000
Set: 3000
Set: 3000
Set: 3000
Set: 3000
Set: 3000
Set: 3000
Set: 3000
Set: 3000
Set: 3000
Set: 3000
Set: 3000
Set: 3000
Set: 3000
Set: 3000
Set: 3000
Set: 3000
Set: 3000
Set: 3000
Set: 3000
Set: 3000
Set: 3000
Set: 3000
Set: 3000
Set: 3000
Set: 3000
Set: 3000
Set: 3000
Set: 3000
Set: 3000
Set: 3000
Set: 3000
Set: 3000
Set: 3000
Set: 3000
Set: 3000
Set: 3000
Set: 3000
Set: 3000
Set: 3000
Set: 3000
Set: 3000
Set: 3000
Set: 3000
Set: 3000
Set: 3000
Set: 3000
Set: 3000
Set: 3000
Set: 3000
Set: 3000
Set: 3000
Set: 3000
Set: 3000
Set: 3000
Set: 3000
Set: 3000
Set: 3000
Set: 3000
Set: 3000
Set: 3000
Set: 3000
Set: 3000
Set: 3000
Set: 3000
Set: 3000
Set: 3000
Set: 3000
Set: 3000
Set: 3000
Set: 3000
Set: 3000
Set: 3000
Set: 3000
Set: 3000
Set: 3000
Set: 3000
Set: 3000
Set: 3000
Set: 3000
Set: 3000
Set: 3000
Set: 3000
Set: 3000
Set: 3000
Set: 3000
Set: 3000
Set: 3000
Set: 3000
Set: 3000
Set: 3000
Set: 3000
Set: 3000
Set: 3000
Set: 3000
Set: 3000
Set: 3000
Set: 3000
Set: 3000
Set: 3000
Set: 3000
Set: 3000
Set: 3000
Set: 3000
Set: 3000
Set: 3000
Set: 3000
Set: 3000
Set: 3000
Set: 3000
Set: 3000
Set: 3000
Set: 3000
Set: 3000
Set: 3000
Set: 3000
Set: 3000
Set: 3000
Set: 3000
Set: 3000
Set: 3000
Set: 3000
Set: 3000
Set: 3000
Set: 3000
Set: 3000
Set: 3000
Set: 3000
Set: 3000
Set: 3000
Set: 3000
Set: 3000
Set: 3000
Set: 3000
Set: 3000
Set: 3000
Set: 3000
Set: 3000
Set: 3000
Set: 3000
Set: 3000
Set: 3000
Set: 3000
Set: 3000
Set: 3000
Set: 3000
Set: 3000
Set: 3000
Set: 3000
Set: 3000
Set: 3000
Set: 3000
Set: 3000
Set: 3000
Set: 3000
Set: 3000
Set: 3000
Set: 3000
Set: 3000
Set: 3000
Set: 3000
Set: 3000
Set: 3000
Set: 3000
Set: 3000
Set: 3000
Set: 3000
Set: 3000
Set: 3000
Set: 3000
Set: 3000
Set: 3000
Set: 3000
Set: 3000
Set: 3000
Set: 3000
Set: 3000
Set: 3000
Set: 3000
Set: 3000
Set: 3000
Set: 3000
Set: 3000
Set: 3000
Set: 3000
Set: 3000
Set: 3000
Set: 3000
Set: 3000
Set: 3000
Set: 3000
Set: 3000
Set: 3000
Set: 3000
Set: 3000
Set: 3000
Set: 3000
Set: 3000
Set: 3000
Set: 3000
Set: 3000
Set: 3000
Set: 3000
Set: 3000
Set: 3000
Set: 3000
Set: 3000
Set: 3000
Set: 3000
Set: 3000
Set: 3000
Set: 3000
Set: 3000
Set: 3000
Set: 3000
Set: 3000
Set: 3000
Set: 3000
Set: 3000
Set: 3000
Set: 3000
Set: 3000
Set: 3000
Set: 3000
Set: 3000
Set: 3000
Set: 3000
Set: 3000
Set: 3000
Set: 3000
Set: 3000
Set: 3000
Set: 3000
Set: 3000
Set: 3000
Set: 3000
Set: 3000
Set: 3000
Set: 3000
Set: 3000
Set: 3000
Set: 3000
Set: 3000
Set: 3000
Set: 3000
Set: 3000
Set: 3000
Set: 3000
Set: 3000
Set: 3000
Set: 3000
Set: 3000
Set: 3000
Set: 3000
Set: 3000
Set: 3000
Set: 3000
Set: 3000
Set: 3000
Set: 3000
Set: 3000
Set: 3000
Set: 3000
Set: 3000
Set: 3000
Set: 3000
Set: 3000
Set: 3000
Set: 3000
Set: 3000
Set: 3000
Set: 3000
Set: 3000
Set: 3000
Set: 3000
Set: 3000
Set: 3000
Set: 3000
Set: 3000
Set: 3000
Set: 3000
Set: 3000
Set: 3000
Set: 3000
Set: 3000
Set: 3000
Set: 3000
Set: 3000
Set: 3000
Set: 3000
Set: 3000
Set: 3000
Set: 3000
Set: 3000
Set: 3000
Set: 3000
Set: 3000
Set: 3000
Set: 3000
Set: 3000
Set: 3000
Set: 3000
Set: 3000
Set: 3000
Set: 3000
Set: 3000
Set: 3000
Set: 3000
Set: 3000
Set: 3000
Set: 3000
Set: 3000
Set: 3000
Set: 3000
Set: 3000
Set: 3000
Set: 3000
Set: 3000
Set: 3000
Set: 3000
Set: 3000
Set: 3000
Set: 3000
Set: 3000
Set: 3000
Set: 3000
Set: 3000
Set: 3000
Set: 3000
Set: 3000
Set: 3000
Set: 3000
Set: 3000
Set: 3000
Set: 3000
Set: 3000
Set: 3000
Set: 3000
Set: 3000
Set: 3000
Set: 3000
Set: 3000
Set: 3000
Set: 3000
Set: 3000
Set: 3000
Set: 3000
Set: 3000
Set: 3000
Set: 3000
Set: 3000
Set: 3000
Set: 3000
Set: 3000
Set: 3000
Set: 3000
Set: 3000
Set: 3000
Set: 3000
Set: 3000
Set: 3000
Set: 3000
Set: 3000
Set: 3000
Set: 3000
Set: 3000
Set: 3000
Set: 3000
Set: 3000
Set: 3000
Set: 3000
Set: 3000
Set: 3000
Set: 3000
Set: 3000
Set: 3000
Set: 3000
Set: 3000
Set: 3000
Set: 3000
Set: 3000
Set: 3000
Set: 3000
Set: 3000
Set: 3000
Set: 3000
Set: 3000
Set: 3000
Set: 3000
Set: 3000
Set: 3000
Set: 3000
Set: 3000
Set: 3000
Set: 3000
Set: 3000
Set: 3000
Set: 3000
Set: 3000
Set: 3000
Set: 3000
Set: 3000
Set: 3000
Set: 3000
Set: 3000
Set: 3000
Set: 3000
Set: 3000
Set: 3000
Set: 3000
Set: 3000
Set: 3000
Set: 3000
Set: 3000
Set: 3000
Set: 3000
Set: 3000
Set: 3000
Set: 3000
Set: 3000
Set: 3000
Set: 3000
Set: 3000
Set: 3000
Set: 3000
Set: 3000
Set: 3000
Set: 3000
Set: 3000
Set: 3000
Set: 3000
Set: 3000
Set: 3000
Set: 3000
Set: 3000
Set: 3000
Set: 3000
Set: 3000
Set: 3000
Set: 3000
Set: 3000
Set: 3000
Set: 3000
Set: 3000
Set: 3000
Set: 3000
Set: 3000
Set: 3000
Set: 3000
Set: 3000
Set: 3000
Set: 3000
Set: 3000
Set: 3000
Set: 3000
Set: 3000
Set: 3000
Set: 3000
Set: 3000
Set: 3000
Set: 3000
Set: 3000
Set: 3000
Set: 3000
Set: 3000
Set: 3000
Set: 3000
Set: 3000
Set: 3000
Set: 3000
Set: 3000
Set: 3000
Set: 3000
Set: 3000
Set: 3000
Set: 3000
Set: 3000
Set: 3000
Set: 3000
Set: 3000
Set: 3000
Set: 3000
Set: 3000
Set: 3000
Set: 3000
Set: 3000
Set: 3000
Set: 3000
Set: 3000
Set: 3000
Set: 3000
Set: 3000
Set: 3000
Set: 3000
Set: 3000
Set: 3000
Set: 3000
Set: 3000
Set: 3000
Set: 3000
Set: 3000
Set: 3000
Set: 3000
Set: 3000
Set: 3000
Set: 3000
Set: 3000
Set: 3000
Set: 3000
Set: 3000
Set: 3000
Set: 3000
Set: 3000
Set: 3000
Set: 3000
Set: 3000
Set: 3000
Set: 3000
Set: 3000
Set: 3000
Set: 3000
Set: 3000
Set: 3000
Set: 3000
Set: 3000
Set: 3000
Set: 3000
Set: 3000
Set: 3000
Set: 3000
Set: 3000
Set: 3000
Set: 3000
Set: 3000
Set: 3000
Set: 3000
Set: 3000
Set: 3000
Set: 3000
Set: 3000
Set: 3000
Set: 3000
Set: 3000
Set: 3000
Set: 3000
Set: 3000
Set: 3000
Set: 3000
Set: 3000
Set: 3000
Set: 3000
Set: 3000
Set: 3000
Set: 3000
Set: 3000
Set: 3000
Set: 3000
Set: 3000
Set: 3000
Set: 3000
Set: 3000
Set: 3000
Set: 3000
Set: 3000
Set: 3000
Set: 3000
Set: 3000
Set: 3000
Set: 3000
Set: 3000
Set: 3000
Set: 3000
Set: 3000
Set: 3000
Set: 3000
Set: 3000
Set: 3000
Set: 3000
Set: 3000
Set: 3000
Set: 3000
Set: 3000
Set: 3000
Set: 3000
Set: 3000
Set: 3000
Set: 3000
Set: 3000
Set: 3000
Set: 3000
Set: 3000
Set: 3000
Set: 3000
Set: 3000
Set: 3000
Set: 3000
Set: 3000
Set: 3000
Set: 3000
Set: 3000
Set: 3000
Set: 3000
Set: 3000
Set: 3000
Set: 3000
Set: 3000
Set: 3000
Set: 3000
Set: 3000
Set: 3000
Set: 3000
Set: 3000
Set: 3000
Set: 3000
Set: 3000
Set: 3000
Set: 3000
Set: 3000
Set: 3000
Set: 3000
Set: 3000
Set: 3000
Set: 3000
Set: 3000
Set: 3000
Set: 3000
Set: 3000
Set: 3000
Set: 3000
Set: 3000
Set: 3000
Set: 3000
Set: 3000
Set: 3000
Set: 3000
Set: 3000
Set: 3000
Set: 3000
Set: 3000
Set: 3000
Set: 3000
Set: 3000
Set: 3000
Set: 3000
Set: 3000
Set: 3000
Set: 3000
Set: 3000
Set: 3000
Set: 3000
Set: 3000
Set: 3000
Set: 3000
Set: 3000
Set: 3000
Set: 3000
Set: 3000
Set: 3000
Set: 3000
Set: 3000
Set: 3000
Set: 3000
Set: 3000
Set: 3000
Set: 3000
Set: 3000
Set: 3000
Set: 3000
Set: 3000
Set: 3000
Set: 3000
Set: 3000
Set: 3000
Set: 3000
Set: 3000
Set: 3000
Set: 3000
Set: 3000
Set: 3000
Set: 3000
Set: 3000
Set: 3000
Set: 3000
Set: 3000
Set: 3000
Set: 3000
Set: 3000
Set: 3000
Set: 3000
Set: 3000
Set: 3000
Set: 3000
Set: 3000
Set: 3000
Set: 3000
Set: 3000
Set: 3000
Set: 3000
Set: 3000
Set: 3000
Set: 3000
Set: 3000
Set: 3000
Set: 3000
Set: 3000
Set: 3000
Set: 3000
Set: 3000
Set: 3000
Set: 3000
Set: 3000
Set: 3000
Set: 3000
Set: 3000
Set: 3000
Set: 3000
Set: 3000
Set: 3000
Set: 3000
Set: 3000
Set: 3000
Set: 3000
Set: 3000
Set: 3000
Set: 3000
Set: 3000
Set: 3000
Set: 3000
Set: 3000
Set: 3000
Set: 3000
Set: 3000
Set: 3000
Set: 3000
Set: 3000
Set: 3000
Set: 3000
Set: 3000
Set: 3000
Set: 3000
Set: 3000
Set: 3000
Set: 3000
Set: 3000
Set: 3000
Set: 3000
Set: 3000
Set: 3000
Set: 3000
Set: 3000
Set: 3000
Set: 3000
Set: 3000
Set: 3000
Set: 3000
Set: 3000
Set: 3000
Set: 3000
Set: 3000
Set: 3000
Set: 3000
Set: 3000
Set: 3000
Set: 3000
Set: 3000
Set: 3000
Set: 3000
Set: 3000
Set: 3000
Set: 3000
Set: 3000
Set: 3000
Set: 3000
Set: 3000
Set: 3000
Set: 3000
Set: 3000
Set: 3000
Set: 3000
Set: 3000
Set: 3000
Set: 3000
Set: 3000
Set: 3000
Set: 3000
Set: 3000
Set: 3000
Set: 3000
Set: 3000
Set: 3000
Set: 3000
Set: 3000
Set: 3000
Set: 3000
Set: 3000
Set: 3000
Set: 3000
Set: 3000
Set: 3000
Set: 3000
Set: 3000
Set: 3000
Set: 3000
Set: 3000
Set: 3000
Set: 3000
Set: 3000
Set: 3000
Set: 3000
Set: 3000
Set: 3000
Set: 3000
Set: 3000
Set: 3000
Set: 3000
Set: 3000
Set: 3000
Set: 3000
Set: 3000
Set: 3000
Set: 3000
Set: 3000
Set: 3000
Set: 3000
Set: 3000
Set: 3000
Set: 3000
Set: 3000
Set: 3000
Set: 3000
Set: 3000
Set: 3000
Set: 3000
Set: 3000
Set: 3000
Set: 3000
Set: 3000
Set: 3000
Set: 3000
Set: 3000
Set: 3000
Set: 3000
Set: 3000
Set: 3000
Set: 3000
Set: 3000
Set: 3000
Set: 3000
Set: 3000
Set: 3000
Set: 3000
Set: 3000
Set: 3000
Set: 3000
Set: 3000
Set: 3000
Set: 3000
Set: 3000
Set: 3000
Set: 3000
Set: 3000
Set: 3000
Set: 3000
Set: 3000
Set: 3000
Set: 3000
Set: 3000
Set: 3000
Set: 3000
Set: 3000
Set: 3000
Set: 3000
Set: 3000
Set: 3000
Set: 3000
Set: 3000
Set: 3000
Set: 3000
Set: 3000
Set: 3000
Set: 3000
Set: 3000
Set: 3000
Set: 3000
Set: 3000
Set: 3000
Set: 3000
Set: 3000
Set: 3000
Set: 3000
Set: 3000
Set: 3000
Set: 3000
Set: 3000
Set: 3000
Set: 3000
Set: 3000
Set: 3000
Set: 3000
Set: 3000
Set: 3000
Set: 3000
Set: 3000
Set: 3000
Set: 3000
Set: 3000
Set: 3000
Set: 3000
Set: 3000
Set: 3000
Set: 3000
Set: 3000
Set: 3000
Set: 3000
Set: 3000
Set: 3000
Set: 3000
Set: 3000
Set: 3000
Set: 3000
Set: 3000
Set: 3000
Set: 3000
Set: 3000
Set: 3000
Set: 3000
Set: 3000
Set: 3000
Set: 3000
Set: 3000
Set: 3000
Set: 3000
Set: 3000
Set: 3000
Set: 3000
Set: 3000
Set: 3000
Set: 3000
Set: 3000
Set: 3000
Set: 3000
Set: 3000
Set: 3000
Set: 3000
Set: 3000
Set: 3000
Set: 3000
Set: 3000
Set: 3000
Set: 3000
Set: 3000
Set: 3000
Set: 3000
Set: 3000
Set: 3000
Set: 3000
Set: 3000
Set: 3000
Set: 3000
Set: 3000
Set: 3000
Set: 3000
Set: 3000
Set: 3000
Set: 3000
Set: 3000
Set: 3000
Set: 3000
Set: 3000
Set: 3000
Set: 3000
Set: 3000
Set: 3000
Set: 3000
Set: 3000
Set: 3000
Set: 3000
Set: 3000
Set: 3000
Set: 3000
Set: 3000
Set: 3000
Set: 3000
Set: 3000
Set: 3000
Set: 3000
Set: 3000
Set: 3000
Set: 3000
Set: 3000
Set: 3000
Set: 3000
Set: 3000
Set: 3000
Set: 3000
Set: 3000
Set: 3000
Set: 3000
Set: 3000
Set: 3000
Set: 3000
Set: 3000
Set: 3000
Set: 3000
Set: 3000
Set: 3000
Set: 3000
Set: 3000
Set: 3000
Set: 3000
Set: 3000
Set: 3000
Set: 3000
Set: 3000
Set: 3000
Set: 3000
Set: 3000
Set: 3000
Set: 3000
Set: 3000
Set: 3000
Set: 3000
Set: 3000
Set: 3000
Set: 3000
Set: 3000
Set: 3000
Set: 3000
Set: 3000
Set: 3000
Set: 3000
Set: 3000
Set: 3000
Set: 3000
Set: 3000
Set: 3000
Set: 3000
Set: 3000
Set: 3000
Set: 3000
Set: 3000
Set: 3000
Set: 3000
Set: 3000
Set: 3000
Set: 3000
Set: 3000
Set: 3000
Set: 3000
Set: 3000
Set: 3000
Set: 3000
Set: 3000
Set: 3000
Set: 3000
Set: 3000
Set: 3000
Set: 3000
Set: 3000
Set: 3000
Set: 3000
Set: 3000
Set: 3000
Set: 3000
Set: 3000
Set: 3000
Set: 3000
Set: 3000
Set: 3000
Set: 3000
Set: 3000
Set: 3000
Set: 3000
Set: 3000
Set: 3000
Set: 3000
Set: 3000
Set: 3000
Set: 3000
Set: 3000
Set: 3000
Set: 3000
Set: 3000
Set: 3000
Set: 3000
Set: 3000
Set: 3000
Set: 3000
Set: 3000
Set: 3000
Set: 3000
Set: 3000
Set: 3000
Set: 3000
Set: 3000
Set: 3000
Set: 3000
Set: 3000
Set: 3000
Set: 3000
Set: 3000
Set: 3000
Set: 3000
Set: 3000
Set: 3000
Set: 3000
Set: 3000
Set: 3000
Set: 3000
Set: 3000
Set: 3000
Set: 3000
Set: 3000
Set: 3000
Set: 3000
Set: 3000
Set: 3000
Set: 3000
Set: 3000
Set: 3000
Set: 3000
Set: 3000
Set: 3000
Set: 3000
Set: 3000
Set: 3000
Set: 3000
Set: 3000
Set: 3000
Set: 3000
Set: 3000
Set: 3000
Set: 3000
Set: 3000
Set: 3000
Set: 3000
Set: 3000
Set: 3000
Set: 3000
Set: 3000
Set: 3000
Set: 3000
Set: 3000
Set: 3000
Set: 3000
Set: 3000
Set: 3000
Set: 3000
Set: 3000
Set: 3000
Set: 3000
Set: 3000
Set: 3000
Set: 3000
Set: 3000
Set: 3000
Set: 3000
Set: 3000
Set: 3000
Set: 3000
Set: 3000
Set: 3000
Set: 3000
Set: 3000
Set: 3000
Set: 3000
Set: 3000
Set: 3000
Set: 3000
Set: 3000
Set: 3000
Set: 3000
Set: 3000
Set: 3000
Set: 3000
Set: 3000
Set: 3000
Set: 3000
Set: 3000
Set: 3000
Set: 3000
Set: 3000
Set: 3000
Set: 3000
Set: 3000
Set: 3000
Set: 3000
Set: 3000
Set: 3000
Set: 3000
Set: 3000
Set: 3000
Set: 3000
Set: 3000
Set: 3000
Set: 3000
Set: 3000
Set: 3000
Set: 3000
Set: 3000
Set: 3000
Set: 3000
Set: 3000
Set: 3000
Set: 3000
Set: 3000
Set: 3000
Set: 3000
Set: 3000
Set: 3000
Set: 3000
Set: 3000
Set: 3000
Set: 3000
Set: 3000
Set: 3000
Set: 3000
Set: 3000
Set: 3000
Set: 3000
Set: 3000
Set: 3000
Set: 3000
Set: 3000
Set: 3000
Set: 3000
Set: 3000
Set: 3000
Set: 3000
Set: 3000
Set: 3000
Set: 3000
Set: 3000
Set: 3000
Set: 3000
Set: 3000
Set: 3000
Set: 3000
Set: 3000
Set: 3000
Set: 3000
Set: 3000
Set: 3000
Set: 3000
Set: 3000
Set: 3000
Set: 3000
Set: 3000
Set: 3000
Set: 3000
Set: 3000
Set: 3000
Set: 3000
Set: 3000
Set: 3000
Set: 3000
Set: 3000
Set: 3000
Set: 3000
Set: 3000
Set: 3000
Set: 3000
Set: 3000
Set: 3000
Set: 3000
Set: 3000
Set: 3000
Set: 3000
Set: 3000
Set: 3000
Set: 3000
Set: 3000
Set: 3000
Set: 3000
Set: 3000
Set: 3000
Set: 3000
Set: 3000
Set: 3000
Set: 3000
Set: 3000
Set: 3000
Set: 3000
Set: 3000
Set: 3000
Set: 3000
Set: 3000
Set: 3000
Set: 3000
Set: 3000
Set: 3000
Set: 3000
Set: 3000
Set: 3000
Set: 3000
Set: 3000
Set: 3000
Set: 3000
Set: 3000
Set: 3000
Set: 3000
Set: 3000
Set: 3000
Set: 3000
Set: 3000
Set: 3000
Set: 3000
Set: 3000
Set: 3000
Set: 3000
Set: 3000
Set: 3000
Set: 3000
Set: 3000
Set: 3000
Set: 3000
Set: 3000
Set: 3000
Set: 3000
[...]
Set: 1006
Set: 1006
Set: 1006
Set: 1006
Set: 1006
Set: 1006
Set: 1006
Set: 1006
Set: 1006
Set: 1006
Set: 1006
Set: 1006
Set: 1006
Set: 1006
Set: 1006
Set: 1006
Set: 1006
Set: 1006
Set: 1006
Set: 1006
Set: 1006
Set: 1006
Set: 1006
Set: 1006
Set: 1006
Set: 1006
Set: 1006
Set: 1006
Set: 1006
Set: 1006
Set: 1006
Set: 1006
Set: 1006
Set: 1006
Set: 1006
Set: 1006
Set: 1006
Set: 1006
Set: 1006
Set: 1006
Set: 1006
Set: 1006
Set: 1006
Set: 1006
Set: 1006
Set: 1006
Set: 1006
Set: 1006
Set: 1006
Set: 1006
Set: 1006
Set: 1006
Set: 1006
Set: 1006
Set: 1006
Set: 1006
Set: 1006
Set: 1006
Set: 1006
Set: 1006
Set: 1006
Set: 1006
Set: 1006
Set: 1006
Set: 1006
Set: 1006
Set: 1006
Set: 1006
Set: 1006
Set: 1006
Set: 1006
Set: 1006
Set: 1006
Set: 1006
Set: 1006
Set: 1006
Set: 1006
Set: 1006
Set: 1006
Set: 1006
Set: 1006
Set: 1006
Set: 1006
Set: 1006
Set: 1006
Set: 1006
Set: 1006
Set: 1006
Set: 1006
Set: 1006
Set: 1006
Set: 1006
Set: 1006
Set: 1006
Set: 1006
Set: 1006
Set: 1006
Set: 1006
Set: 1006
Set: 1006
Set: 1006
Set: 1006
Set: 1006
Set: 1006
Set: 1006
Set: 1006
Set: 1006
Set: 1006
Set: 1006
Set: 1006
Set: 1006
Set: 1006
Set: 1006
Set: 1006
Set: 1006
Set: 1006
Set: 1006
Set: 1006
Set: 1006
Set: 1006
Set: 1006
Set: 1006
Set: 1006
Set: 1006
Set: 1006
Set: 1006
Set: 1006
Set: 1006
Set: 1006
Set: 1006
Set: 1006
Set: 1006
Set: 1006
Set: 1006
Set: 1006
Set: 1006
Set: 1006
Set: 1006
Set: 1006
Set: 1006
Set: 1006
Set: 1006
Set: 1006
Set: 1006
Set: 1006
Set: 1006
Set: 1006
Set: 1006
Set: 1006
Set: 1006
Set: 1006
Set: 1006
Set: 1006
Set: 1006
Set: 1006
Set: 1006
Set: 1006
Set: 1006
Set: 1006
Set: 1006
Set: 1006
Set: 1006
Set: 1006
Set: 1006
Set: 1006
Set: 1006
Set: 1006
Set: 1006
Set: 1006
Set: 1006
Set: 1006
Set: 1006
Set: 1006
Set: 1006
Set: 1006
Set: 1006
Set: 1006
Set: 1006
Set: 1006
Set: 1006
Set: 1006
Set: 1006
Set: 1006
Set: 1006
Set: 1006
Set: 1006
Set: 1006
Set: 1006
Set: 1006
Set: 1006
Set: 1006
Set: 1006
Set: 1006
Set: 1006
Set: 1006
Set: 1006
Set: 1006
Set: 1006
Set: 1006
Set: 1006
Set: 1006
Set: 1006
Set: 1006
Set: 1006
Set: 1006
Set: 1006
Set: 1006
Set: 1006
Set: 1006
Set: 1006
Set: 1006
Set: 1006
Set: 1006
Set: 1006
Set: 1006
Set: 1006
Set: 1006
Set: 1006
Set: 1006
Set: 1006
Set: 1006
Set: 1006
Set: 1006
Set: 1006
Set: 1006
Set: 1006
Set: 1006
Set: 1006
Set: 1006
Set: 1006
Set: 1006
Set: 1006
Set: 1006
Set: 1006
Set: 1006
Set: 1006
Set: 1006
Set: 1006
Set: 1006
Set: 1006
Set: 1006
Set: 1006
Set: 1006
Set: 1006
Set: 1006
Set: 1006
Set: 1006
Set: 1006
Set: 1006
Set: 1006
Set: 1006
Set: 1006
Set: 1006
Set: 1006
Set: 1006
Set: 1006
Set: 1006
Set: 1006
Set: 1006
Set: 1006
Set: 1006
Set: 1006
Set: 1006
Set: 1006
Set: 1006
Set: 1006
Set: 1006
Set: 1006
Set: 1006
Set: 1006
Set: 1006
Set: 1006
Set: 1006
Set: 1006
Set: 1006
Set: 1006
Set: 1006
Set: 1006
Set: 1006
Set: 1006
Set: 1006
Set: 1006
Set: 1006
Set: 1006
Set: 1006
Set: 1006
Set: 1006
Set: 1006
Set: 1006
Set: 1006
Set: 1006
Set: 1006
Set: 1006
Set: 1006
Set: 1006
Set: 1006
Set: 1006
Set: 1006
Set: 1006
Set: 1006
Set: 1006
Set: 1006
Set: 1006
Set: 1006
Set: 1006
Set: 1006
Set: 1006
Set: 1006
Set: 1006
Set: 1006
Set: 1006
Set: 1006
Set: 1006
Set: 1006
Set: 1006
Set: 1006
Set: 1006
Set: 1006
Set: 1006
Set: 1006
Set: 1006
Set: 1006
Set: 1006
Set: 1006
Set: 1006
Set: 1006
Set: 1006
Set: 1006
Set: 1006
Set: 1006
Set: 1006
Set: 1006
Set: 1006
Set: 1006
Set: 1006
Set: 1006
Set: 1006
Set: 1006
Set: 1006
Set: 1006
Set: 1006
Set: 1006
Set: 1006
Set: 1006
Set: 1006
Set: 1006
Set: 1006
Set: 1006
Set: 1006
Set: 1006
Set: 1006
Set: 1006
Set: 1006
Set: 1006
Set: 1006
Set: 1006
Set: 1006
Set: 1006
Set: 1006
Set: 1006
Set: 1006
Set: 1006
Set: 1006
Set: 1006
Set: 1006
Set: 1006
Set: 1006
Set: 1006
Set: 1006
Set: 1006
Set: 1006
Set: 1006
Set: 1006
Set: 1006
Set: 1006
Set: 1006
Set: 1006
Set: 1006
Set: 1006
Set: 1006
Set: 1006
Set: 1006
Set: 1006
Set: 1006
Set: 1006
Set: 1006
Set: 1006
Set: 1006
Set: 1006
Set: 1006
Set: 1006
Set: 1006
Set: 1006
Set: 1006
Set: 1006
Set: 1006
Set: 1006
Set: 1006
Set: 1006
Set: 1006
Set: 1006
Set: 1006
Set: 1006
Set: 1006
Set: 1006
Set: 1006
Set: 1006
Set: 1006
Set: 1006
Set: 1006
Set: 1006
Set: 1006
Set: 1006
Set: 1006
Set: 1006
Set: 1006
Set: 1006
Set: 1006
Set: 1006
Set: 1006
Set: 1006
Set: 1006
Set: 1006
Set: 1006
Set: 1006
Set: 1006
Set: 1006
Set: 1006
Set: 1006
Set: 1006
Set: 1006
Set: 1006
Set: 1006
Set: 1006
Set: 1006
Set: 1006
Set: 1006
Set: 1006
Set: 1006
Set: 1006
Set: 1006
Set: 1006
Set: 1006
Set: 1006
Set: 1006
Set: 1006
Set: 1006
Set: 1006
Set: 1006
Set: 1006
Set: 1006
Set: 1006
Set: 1006
Set: 1006
Set: 1006
Set: 1006
Set: 1006
Set: 1006
Set: 1006
Set: 1006
Set: 1006
Set: 1006
Set: 1006
Set: 1006
Set: 1006
Set: 1006
Set: 1006
Set: 1006
Set: 1006
Set: 1006
Set: 1006
Set: 1006
Set: 1006
Set: 1006
Set: 1006
Set: 1006
Set: 1006
Set: 1006
Set: 1006
Set: 1006
Set: 1006
Set: 1006
Set: 1006
Set: 1006
Set: 1006
Set: 1006
Set: 1006
Set: 1006
Set: 1006
Set: 1006
Set: 1006
Set: 1006
Set: 1006
Set: 1006
Set: 1006
Set: 1006
Set: 1006
Set: 1006
Set: 1006
Set: 1006
Set: 1006
Set: 1006
Set: 1006
Set: 1006
Set: 1006
Set: 1006
Set: 1006
Set: 1006
Set: 1006
Set: 1006
Set: 1006
Set: 1006
Set: 1006
Set: 1006
Set: 1006
Set: 1006
Set: 1006
Set: 1006
Set: 1006
Set: 1006
Set: 1006
Set: 1006
Set: 1006
Set: 1006
Set: 1006
Set: 1006
Set: 1006
Set: 1006
Set: 1006
Set: 1006
Set: 1006
Set: 1006
Set: 1006
Set: 1006
Set: 1006
Set: 1006
Set: 1006
Set: 1006
Set: 1006
Set: 1006
Set: 1006
Set: 1006
Set: 1006
Set: 1006
Set: 1006
Set: 1006
Set: 1006
Set: 1006
Set: 1006
Set: 1006
Set: 1006
Set: 1006
Set: 1006
Set: 1006
Set: 1006
Set: 1006
Set: 1006
Set: 1006
Set: 1006
Set: 1006
Set: 1006
Set: 1006
Set: 1006
Set: 1006
Set: 1006
Set: 1006
Set: 1006
Set: 1006
Set: 1006
Set: 1006
Set: 1006
Set: 1006
Set: 1006
Set: 1006
Set: 1006
Set: 1006
Set: 1006
Set: 1006
Set: 1006
Set: 1006
Set: 1006
Set: 1006
Set: 1006
Set: 1006
Set: 1006
Set: 1006
Set: 1006
Set: 1006
Set: 1006
Set: 1006
Set: 1006
Set: 1006
Set: 1006
Set: 1006
Set: 1006
Set: 1006
Set: 1006
Set: 1006
Set: 1006
Set: 1006
Set: 1006
Set: 1006
Set: 1006
Set: 1006
Set: 1006
Set: 1006
Set: 1006
Set: 1006
Set: 1006
Set: 1006
Set: 1006
Set: 1006
Set: 1006
Set: 1006
Set: 1006
Set: 1006
Set: 1006
Set: 1006
Set: 1006
Set: 1006
Set: 1006
Set: 1006
Set: 1006
Set: 1006
Set: 1006
Set: 1006
Set: 1006
Set: 1006
Set: 1006
Set: 1006
Set: 1006
Set: 1006
Set: 1006
Set: 1006
Set: 1006
Set: 1006
Set: 1006
Set: 1006
Set: 1006
Set: 1006
Set: 1006
Set: 1006
Set: 1006
Set: 1006
Set: 1006
Set: 1006
Set: 1006
Set: 1006
Set: 1006
Set: 1006
Set: 1006
Set: 1006
Set: 1006
Set: 1006
Set: 1006
Set: 1006
Set: 1006
Set: 1006
Set: 1006
Set: 1006
Set: 1006
Set: 1006
Set: 1006
Set: 1006
Set: 1006
Set: 1006
Set: 1006
Set: 1006
Set: 1006
Set: 1006
Set: 1006
Set: 1006
Set: 1006
Set: 1006
Set: 1006
Set: 1006
Set: 1006
Set: 1006
Set: 1006
Set: 1006
Set: 1006
Set: 1006
Set: 1006
Set: 1006
Set: 1006
Set: 1006
Set: 1006
Set: 1006
Set: 1006
Set: 1006
Set: 1006
Set: 1006
Set: 1006
Set: 1006
Set: 1006
Set: 1006
Set: 1006
Set: 1006
Set: 1006
Set: 1006
Set: 1006
Set: 1006
Set: 1006
Set: 1006
Set: 1006
Set: 1006
Set: 1006
Set: 1006
Set: 1006
Set: 1006
Set: 1006
Set: 1006
Set: 1006
Set: 1006
Set: 1006
Set: 1006
Set: 1006
Set: 1006
Set: 1006
Set: 1006
Set: 1006
Set: 1006
Set: 1006
Set: 1006
Set: 1006
Set: 1006
Set: 1006
Set: 1006
Set: 1006
Set: 1006
Set: 1006
Set: 1006
Set: 1006
Set: 1006
Set: 1006
Set: 1006
Set: 1006
Set: 1006
Set: 1006
Set: 1006
Set: 1006
Set: 1006
Set: 1006
Set: 1006
Set: 1006
Set: 1006
Set: 1006
Set: 1006
Set: 1006
Set: 1006
Set: 1006
Set: 1006
Set: 1006
Set: 1006
Set: 1006
Set: 1006
Set: 1006
Set: 1006
Set: 1006
Set: 1006
Set: 1006
Set: 1006
Set: 1006
Set: 1006
Set: 1006
Set: 1006
Set: 1006
Set: 1006
Set: 1006
Set: 1006
Set: 1006
Set: 1006
Set: 1006
Set: 1006
Set: 1006
Set: 1006
Set: 1006
Set: 1006
Set: 1006
Set: 1006
Set: 1006
Set: 1006
Set: 1006
Set: 1006
Set: 1006
Set: 1006
Set: 1006
Set: 1006
Set: 1006
Set: 1006
Set: 1006
Set: 1006
Set: 1006
Set: 1006
Set: 1006
Set: 1006
Set: 1006
Set: 1006
Set: 1006
Set: 1006
Set: 1006
Set: 1006
Set: 1006
Set: 1006
Set: 1006
Set: 1006
Set: 1006
Set: 1006
Set: 1006
Set: 1006
Set: 1006
Set: 1006
Set: 1006
Set: 1006
Set: 1006
Set: 1006
Set: 1006
Set: 1006
Set: 1006
Set: 1006
Set: 1006
Set: 1006
Set: 1006
Set: 1006
Set: 1006
Set: 1006
Set: 1006
Set: 1006
Set: 1006
Set: 1006
Set: 1006
Set: 1006
Set: 1006
Set: 1006
Set: 1006
Set: 1006
Set: 1006
Set: 1006
Set: 1006
Set: 1006
Set: 1006
Set: 1006
Set: 1006
Set: 1006
Set: 1006
Set: 1006
Set: 1006
Set: 1006
Set: 1006
Set: 1006
Set: 1006
Set: 1006
Set: 1006
Set: 1006
Set: 1006
Set: 1006
Set: 1006
Set: 1006
Set: 1006
Set: 1006
Set: 1006
Set: 1006
Set: 1006
Set: 1006
Set: 1006
Set: 1006
Set: 1006
Set: 1006
Set: 1006
Set: 1006
Set: 1006
Set: 1006
Set: 1006
Set: 1006
Set: 1006
Set: 1006
Set: 1006
Set: 1006
Set: 1006
Set: 1006
Set: 1006
Set: 1006
Set: 1006
Set: 1006
Set: 1006
Set: 1006
Set: 1006
Set: 1006
Set: 1006
Set: 1006
Set: 1006
Set: 1006
Set: 1006
Set: 1006
Set: 1006
Set: 1006
Set: 1006
Set: 1006
Set: 1006
Set: 1006
Set: 1006
Set: 1006
Set: 1006
Set: 1006
Set: 1006
Set: 1006
Set: 1006
Set: 1006
Set: 1006
Set: 1006
Set: 1006
Set: 1006
Set: 1006
Set: 1006
Set: 1006
Set: 1006
Set: 1006
Set: 1006
Set: 1006
Set: 1006
Set: 1006
Set: 1006
Set: 1006
Set: 1006
Set: 1006
Set: 1006
Set: 1006
Set: 1006
Set: 1006
Set: 1006
Set: 1006
Set: 1006
Set: 1006
Set: 1006
Set: 1006
Set: 1006
Set: 1006
Set: 1006
Set: 1006
Set: 1006
Set: 1006
Set: 1006
Set: 1006
Set: 1006
Set: 1006
Set: 1006
Set: 1006
Set: 1006
Set: 1006
Set: 1006
Set: 1006
Set: 1006
Set: 1006
Set: 1006
Set: 1006
Set: 1006
Set: 1006
Set: 1006
Set: 1006
Set: 1006
Set: 1006
Set: 1006
Set: 1006
Set: 1006
Set: 1006
Set: 1006
Set: 1006
Set: 1006
Set: 1006
Set: 1006
Set: 1006
Set: 1006
Set: 1006
Set: 1006
Set: 1006
Set: 1006
Set: 1006
Set: 1006
Set: 1006
Set: 1006
Set: 1006
Set: 1006
Set: 1006
Set: 1006
Set: 1006
Set: 1006
Set: 1006
Set: 1006
Set: 1006
Set: 1006
Set: 1006
Set: 1006
Set: 1006
Set: 1006
Set: 1006
Set: 1006
Set: 1006
Set: 1006
Set: 1006
Set: 1006
Set: 1006
Set: 1006
Set: 1006
Set: 1006
Set: 1006
Set: 1006
Set: 1006
Set: 1006
Set: 1006
Set: 1006
Set: 1006
Set: 1006
Set: 1006
Set: 1006
Set: 1006
Set: 1006
Set: 1006
Set: 1006
Set: 1006
Set: 1006
Set: 1006
Set: 1006
Set: 1006
Set: 1006
Set: 1006
Set: 1006
Set: 1006
Set: 1006
Set: 1006
Set: 1006
Set: 1006
Set: 1006
Set: 1006
Set: 1006
Set: 1006
Set: 1006
Set: 1006
Set: 1006
Set: 1006
Set: 1006
Set: 1006
Set: 1006
Set: 1006
Set: 1006
Set: 1006
Set: 1006
Set: 1006
Set: 1006
Set: 1006
Set: 1006
Set: 1006
Set: 1006
Set: 1006
Set: 1006
Set: 1006
Set: 1006
Set: 1006
Set: 1006
Set: 1006
Set: 1006
Set: 1006
Set: 1006
Set: 1006
Set: 1006
Set: 1006
Set: 1006
Set: 1006
Set: 1006
Set: 1006
Set: 1006
Set: 1006
Set: 1006
Set: 1006
Set: 1006
Set: 1006
Set: 1006
Set: 1006
Set: 1006
Set: 1006
Set: 1006
Set: 1006
Set: 1006
Set: 1006
Set: 1006
Set: 1006
Set: 1006
Set: 1006
Set: 1006
Set: 1006
Set: 1006
Set: 1006
Set: 1006
Set: 1006
Set: 1006
Set: 1006
Set: 1006
Set: 1006
Set: 1006
Set: 1006
Set: 1006
Set: 1006
Set: 1006
Set: 1006
Set: 1006
Set: 1006
Set: 1006
Set: 1006
Set: 1006
Set: 1006
Set: 1006
Set: 1006
Set: 1006
Set: 1006
Set: 1006
Set: 1006
Set: 1006
Set: 1006
Set: 1006
Set: 1006
Set: 1006
Set: 1006
Set: 1006
Set: 1006
Set: 1006
Set: 1006
Set: 1006
Set: 1006
Set: 1006
Set: 1006
Set: 1006
Set: 1006
Set: 1006
Set: 1006
Set: 1006
Set: 1006
Set: 1006
Set: 1006
Set: 1006
Set: 1006
Set: 1006
Set: 1006
Set: 1006
Set: 1006
Set: 1006
Set: 1006
Set: 1006
Set: 1006
Set: 1006
Set: 1006
Set: 1006
Set: 1006
Set: 1006
Set: 1006
Set: 1006
Set: 1006
Set: 1006
Set: 1006
Set: 1006
Set: 1006
Set: 1006
Set: 1006
Set: 1006
Set: 1006
Set: 1006
Set: 1006
Set: 1006
Set: 1006
Set: 1006
Set: 1006
Set: 1006
Set: 1006
Set: 1006
Set: 1006
Set: 1006
Set: 1006
Set: 1006
Set: 1006
Set: 1006
Set: 1006
Set: 1006
Set: 1006
Set: 1006
Set: 1006
Set: 1006
Set: 1006
Set: 1006
Set: 1006
Set: 1006
Set: 1006
Set: 1006
Set: 1006
Set: 1006
Set: 1006
Set: 1006
Set: 1006
Set: 1006
Set: 1006
Set: 1006
Set: 1006
Set: 1006
Set: 1006
Set: 1006
Set: 1006
Set: 1006
Set: 1006
Set: 1006
Set: 1006
Set: 1006
Set: 1006
Set: 1006
Set: 1006
Set: 1006
Set: 1006
Set: 1006
Set: 1006
Set: 1006
Set: 1006
Set: 1006
Set: 1006
Set: 1006
Set: 1006
Set: 1006
Set: 1006
Set: 1006
Set: 1006
Set: 1006
Set: 1006
Set: 1006
Set: 1006
Set: 1006
Set: 1006
Set: 1006
Set: 1006
Set: 1006
Set: 1006
Set: 1006
Set: 1006
Set: 1006
Set: 1006
Set: 1006
Set: 1006
Set: 1006
Set: 1006
Set: 1006
Set: 1006
Set: 1006
Set: 1006
Set: 1006
Set: 1006
Set: 1006
Set: 1006
Set: 1006
Set: 1006
Set: 1006
Set: 1006
Set: 1006
Set: 1006
Set: 1006
Set: 1006
Set: 1006
Set: 1006
Set: 1006
Set: 1006
Set: 1006
Set: 1006
Set: 1006
Set: 1006
Set: 1006
Set: 1006
Set: 1006
Set: 1006
Set: 1006
Set: 1006
Set: 1006
Set: 1006
Set: 1006
Set: 1006
Set: 1006
Set: 1006
Set: 1006
Set: 1006
Set: 1006
Set: 1006
Set: 1006
Set: 1006
Set: 1006
Set: 1006
Set: 1006
Set: 1006
Set: 1006
Set: 1006
Set: 1006
Set: 1006
Set: 1006
Set: 1006
Set: 1006
Set: 1006
Set: 1006
Set: 1006
Set: 1006
Set: 1006
Set: 1006
Set: 1006
Set: 1006
Set: 1006
Set: 1006
Set: 1006
Set: 1006
Set: 1006
Set: 1006
Set: 1006
Set: 1006
Set: 1006
Set: 1006
Set: 1006
Set: 1006
Set: 1006
Set: 1006
Set: 1006
Set: 1006
Set: 1006
Set: 1006
Set: 1006
Set: 1006
Set: 1006
Set: 1006
Set: 1006
Set: 1006
Set: 1006
Set: 1006
Set: 1006
Set: 1006
Set: 1006
Set: 1006
Set: 1006
Set: 1006
Set: 1006
Set: 1006
Set: 1006
Set: 1006
Set: 1006
Set: 1006
Set: 1006
Set: 1006
Set: 1006
Set: 1006
Set: 1006
Set: 1006
Set: 1006
Set: 1006
Set: 1006
Set: 1006
Set: 1006
Set: 1006
Set: 1006
Set: 1006
Set: 1006
Set: 1006
Set: 1006
Set: 1006
Set: 1006
Set: 1006
Set: 1006
Set: 1006
Set: 1006
Set: 1006
Set: 1006
Set: 1006
Set: 1006
Set: 1006
Set: 1006
Set: 1006
Set: 1006
Set: 1006
Set: 1006
Set: 1006
Set: 1006
Set: 1006
Set: 1006
Set: 1006
Set: 1006
Set: 1006
Set: 1006
Set: 1006
Set: 1006
Set: 1006
Set: 1006
Set: 1006
Set: 1006
Set: 1006
Set: 1006
Set: 1006
Set: 1006
Set: 1006
Set: 1006
Set: 1006
Set: 1006
Set: 1006
Set: 1006
Set: 1006
Set: 1006
Set: 1006
Set: 1006
Set: 1006
Set: 1006
Set: 1006
Set: 1006
Set: 1006
Set: 1006
Set: 1006
Set: 1006
Set: 1006
Set: 1006
Set: 1006
Set: 1006
Set: 1006
Set: 1006
Set: 1006
Set: 1006
Set: 1006
Set: 1006
Set: 1006
Set: 1006
Set: 1006
Set: 1006
Set: 1006
Set: 1006
Set: 1006
Set: 1006
Set: 1006
Set: 1006
Set: 1006
Set: 1006
Set: 1006
Set: 1006
Set: 1006
Set: 1006
Set: 1006
Set: 1006
Set: 1006
Set: 1006
Set: 1006
Set: 1006
Set: 1006
Set: 1006
Set: 1006
Set: 1006
Set: 1006
Set: 1006
Set: 1006
Set: 1006
Set: 1006
Set: 1006
Set: 1006
Set: 1006
Set: 1006
Set: 1006
Set: 1006
Set: 1006
Set: 1006
Set: 1006
Set: 1006
Set: 1006
Set: 1006
Set: 1006
Set: 1006
Set: 1006
Set: 1006
Set: 1006
Set: 1006
Set: 1006
Set: 1006
Set: 1006
Set: 1006
Set: 1006
Set: 1006
Set: 1006
Set: 1006
Set: 1006
Set: 1006
Set: 1006
Set: 1006
Set: 1006
Set: 1006
Set: 1006
Set: 1006
Set: 1006
Set: 1006
Set: 1006
Set: 1006
Set: 1006
Set: 1006
Set: 1006
Set: 1006
Set: 1006
Set: 1006
Set: 1006
Set: 1006
Set: 1006
Set: 1006
Set: 1006
Set: 1006
Set: 1006
Set: 1006
Set: 1006
Set: 1006
Set: 1006
Set: 1006
Set: 1006
Set: 1006
Set: 1006
Set: 1006
Set: 1006
Set: 1006
Set: 1006
Set: 1006
Set: 1006
Set: 1006
Set: 1006
Set: 1006
Set: 1006
Set: 1006
Set: 1006
Set: 1006
Set: 1006
Set: 1006
Set: 1006
Set: 1006
Set: 1006
Set: 1006
Set: 1006
Set: 1006
Set: 1006
Set: 1006
Set: 1006
Set: 1006
Set: 1006
Set: 1006
Set: 1006
Set: 1006
Set: 1006
Set: 1006
Set: 1006
Set: 1006
Set: 1006
Set: 1006
Set: 1006
Set: 1006
Set: 1006
Set: 1006
Set: 1006
Set: 1006
Set: 1006
Set: 1006
Set: 1006
Set: 1006
Set: 1006
Set: 1006
Set: 1006
Set: 1006
Set: 1006
Set: 1006
Set: 1006
Set: 1006
Set: 1006
Set: 1006
Set: 1006
Set: 1006
Set: 1006
Set: 1006
Set: 1006
Set: 1006
Set: 1006
Set: 1006
Set: 1006
Set: 1006
Set: 1006
Set: 1006
Set: 1006
Set: 1006
Set: 1006
Set: 1006
Set: 1006
Set: 1006
Set: 1006
Set: 1006
Set: 1006
Set: 1006
Set: 1006
Set: 1006
Set: 1006
Set: 1006
Set: 1006
Set: 1006
Set: 1006
Set: 1006
Set: 1006
Set: 1006
Set: 1006
Set: 1006
Set: 1006
Set: 1006
Set: 1006
Set: 1006
Set: 1006
Set: 1006
Set: 1006
Set: 1006
Set: 1006
Set: 1006
Set: 1006
Set: 1006
Set: 1006
Set: 1006
Set: 1006
Set: 1006
Set: 1006
Set: 1006
Set: 1006
Set: 1006
Set: 1006
Set: 1006
Set: 1006
Set: 1006
Set: 1006
Set: 1006
Set: 1006
Set: 1006
Set: 1006
Set: 1006
Set: 1006
Set: 1006
Set: 1006
Set: 1006
Set: 1006
Set: 1006
Set: 1006
Set: 1006
Set: 1006
Set: 1006
Set: 1006
Set: 1006
Set: 1006
Set: 1006
Set: 1006
Set: 1006
Set: 1006
Set: 1006
Set: 1006
Set: 1006
Set: 1006
Set: 1006
Set: 1006
Set: 1006
Set: 1006
Set: 1006
Set: 1006
Set: 1006
Set: 1006
Set: 1006
Set: 1006
Set: 1006
Set: 1006
Set: 1006
Set: 1006
Set: 1006
Set: 1006
Set: 1006
Set: 1006
Set: 1006
Set: 1006
Set: 1006
Set: 1006
Set: 1006
Set: 1006
Set: 1006
Set: 1006
Set: 1006
Set: 1006
Set: 1006
Set: 1006
Set: 1006
Set: 1006
Set: 1006
Set: 1006
Set: 1006
Set: 1006
Set: 1006
Set: 1006
Set: 1006
Set: 1006
Set: 1006
Set: 1006
Set: 1006
Set: 1006
Set: 1006
Set: 1006
Set: 1006
Set: 1006
Set: 1006
Set: 1006
Set: 1006
Set: 1006
Set: 1006
Set: 1006
Set: 1006
Set: 1006
Set: 1006
Set: 1006
Set: 1006
Set: 1006
Set: 1006
Set: 1006
Set: 1006
Set: 1006
Set: 1006
Set: 1006
Set: 1006
Set: 1006
Set: 1006
Set: 1006
Set: 1006
Set: 1006
Set: 1006
Set: 1006
Set: 1006
Set: 1006
Set: 1006
Set: 1006
Set: 1006
Set: 1006
Set: 1006
Set: 1006
Set: 1006
Set: 1006
Set: 1006
Set: 1006
Set: 1006
Set: 1006
Set: 1006
Set: 1006
Set: 1006
Set: 1006
Set: 1006
Set: 1006
Set: 1006
Set: 1006
Set: 1006
Set: 1006
Set: 1006
Set: 1006
Set: 1006
Set: 1006
Set: 1006
Set: 1006
Set: 1006
Set: 1006
Set: 1006
Set: 1006
Set: 1006
Set: 1006
Set: 1006
Set: 1006
Set: 1006
Set: 1006
Set: 1006
Set: 1006
Set: 1006
Set: 1006
Set: 1006
Set: 1006
Set: 1006
Set: 1006
Set: 1006
Set: 1006
Set: 1006
Set: 1006
Set: 1006
Set: 1006
Set: 1006
Set: 1006
Set: 1006
Set: 1006
Set: 1006
Set: 1006
Set: 1006
Set: 1006
Set: 1006
Set: 1006
Set: 1006
Set: 1006
Set: 1006
Set: 1006
Set: 1006
Set: 1006
Set: 1006
Set: 1006
Set: 1006
Set: 1006
Set: 1006
Set: 1006
Set: 1006
Set: 1006
Set: 1006
Set: 1006
Set: 1006
Set: 1006
Set: 1006
Set: 1006
Set: 1006
Set: 1006
Set: 1006
Set: 1006
Set: 1006
Set: 1006
Set: 1006
Set: 1006
Set: 1006
Set: 1006
Set: 1006
Set: 1006
Set: 1006
Set: 1006
Set: 1006
Set: 1006
Set: 1006
Set: 1006
Set: 1006
Set: 1006
Set: 1006
Set: 1006
Set: 1006
Set: 1006
Set: 1006
Set: 1006
Set: 1006
Set: 1006
Set: 1006
Set: 1006
Set: 1006
Set: 1006
Set: 1006
Set: 1006
Set: 1006
Set: 1006
Set: 1006
Set: 1006
Set: 1006
Set: 1006
Set: 1006
Set: 1006
Set: 1006
Set: 1006
Set: 1006
Set: 1006
Set: 1006
Set: 1006
Set: 1006
Set: 1006
Set: 1006
Set: 1006
Set: 1006
Set: 1006
Set: 1006
Set: 1006
Set: 1006
Set: 1006
Set: 1006
Set: 1006
Set: 1006
Set: 1006
Set: 1006
Set: 1006
Set: 1006
Set: 1006
Set: 1006
Set: 1006
Set: 1006
Set: 1006
Set: 1006
Set: 1006
Set: 1006
Set: 1006
Set: 1006
Set: 1006
Set: 1006
Set: 1006
Set: 1006
Set: 1006
Set: 1006
Set: 1006
Set: 1006
Set: 1006
Set: 1006
Set: 1006
Set: 1006
Set: 1006
Set: 1006
Set: 1006
Set: 1006
Set: 1006
Set: 1006
Set: 1006
Set: 1006
Set: 1006
Set: 1006
Set: 1006
Set: 1006
Set: 1006
Set: 1006
Set: 1006
Set: 1006
Set: 1006
Set: 1006
Set: 1006
Set: 1006
Set: 1006
Set: 1006
Set: 1006
Set: 1006
Set: 1006
Set: 1006
Set: 1006
Set: 1006
Set: 1006
Set: 1006
Set: 1006
Set: 1006
Set: 1006
Set: 1006
Set: 1006
Set: 1006
Set: 1006
Set: 1006
Set: 1006
Set: 1006
Set: 1006
Set: 1006
Set: 1006
Set: 1006
Set: 1006
Set: 1006
Set: 1006
Set: 1006
Set: 1006
Set: 1006
Set: 1006
Set: 1006
Set: 1006
Set: 1006
Set: 1006
Set: 1006
Set: 1006
Set: 1006
Set: 1006
Set: 1006
Set: 1006
Set: 1006
Set: 1006
Set: 1006
Set: 1006
Set: 1006
Set: 1006
Set: 1006
Set: 1006
Set: 1006
Set: 1006
Set: 1006
Set: 1006
Set: 1006
Set: 1006
Set: 1006
Set: 1006
Set: 1006
Set: 1006
Set: 1006
Set: 1006
Set: 1006
Set: 1006
Set: 1006
Set: 1006
Set: 1006
Set: 1006
Set: 1006
Set: 1006
Set: 1006
Set: 1006
Set: 1006
Set: 1006
Set: 1006
Set: 1006
Set: 1006
Set: 1006
Set: 1006
Set: 1006
Set: 1006
Set: 1006
Set: 1006
Caught signal: 2
