
*** ChampSim Multicore Out-of-Order Simulator ***

Warmup Instructions: 1000000
Simulation Instructions: 1000000
Number of CPUs: 1
LLC sets: 2048
LLC ways: 16
Off-chip DRAM Size: 4096 MB Channels: 1 Width: 64-bit Data Rate: 3200 MT/s

CPU 0 runs /mnt/c/Users/Asus/OneDrive/Desktop/ACADEMICS/SEM4/CS204/ChampSim/dpc3_traces/445.gobmk-17B.champsimtrace.xz
CPU 0 Bimodal branch predictor
sET recieved LOC 0: 1844
sET recieved LOC 1: 1844
sET recieved LOC 0: 1912
sET recieved LOC 1: 1912
sET recieved LOC 0: 1913
sET recieved LOC 1: 1913
sET recieved LOC 0: 1887
sET recieved LOC 1: 1887
sET recieved LOC 0: 2034
sET recieved LOC 1: 2034
sET recieved LOC 0: 2030
sET recieved LOC 1: 2030
sET recieved LOC 0: 2042
sET recieved LOC 1: 2042
sET recieved LOC 0: 1977
sET recieved LOC 1: 1977
sET recieved LOC 0: 2043
sET recieved LOC 1: 2043
sET recieved LOC 0: 12
sET recieved LOC 1: 12
sET recieved LOC 0: 2047
sET recieved LOC 1: 2047
sET recieved LOC 0: 128
sET recieved LOC 1: 128
sET recieved LOC 0: 13
sET recieved LOC 1: 13
sET recieved LOC 0: 134
sET recieved LOC 1: 134
sET recieved LOC 0: 116
sET recieved LOC 1: 116
sET recieved LOC 0: 141
sET recieved LOC 1: 141
sET recieved LOC 0: 137
sET recieved LOC 1: 137
sET recieved LOC 0: 126
sET recieved LOC 1: 126
sET recieved LOC 0: 228
sET recieved LOC 1: 228
sET recieved LOC 0: 224
sET recieved LOC 1: 224
sET recieved LOC 0: 225
sET recieved LOC 1: 225
sET recieved LOC 0: 300
sET recieved LOC 1: 300
sET recieved LOC 0: 301
sET recieved LOC 1: 301
sET recieved LOC 0: 322
sET recieved LOC 1: 322
sET recieved LOC 0: 323
sET recieved LOC 1: 323
sET recieved LOC 0: 14
sET recieved LOC 1: 14
sET recieved LOC 0: 302
sET recieved LOC 1: 302
sET recieved LOC 0: 304
sET recieved LOC 1: 304
sET recieved LOC 0: 305
sET recieved LOC 1: 305
sET recieved LOC 0: 485
sET recieved LOC 1: 485
sET recieved LOC 0: 17
sET recieved LOC 1: 17
sET recieved LOC 0: 486
sET recieved LOC 1: 486
sET recieved LOC 0: 400
sET recieved LOC 1: 400
sET recieved LOC 0: 487
sET recieved LOC 1: 487
sET recieved LOC 0: 514
sET recieved LOC 1: 514
sET recieved LOC 0: 515
sET recieved LOC 1: 515
sET recieved LOC 0: 18
sET recieved LOC 1: 18
sET recieved LOC 0: 19
sET recieved LOC 1: 19
sET recieved LOC 0: 187
sET recieved LOC 1: 187
sET recieved LOC 0: 39
sET recieved LOC 1: 39
sET recieved LOC 0: 188
sET recieved LOC 1: 188
sET recieved LOC 0: 627
sET recieved LOC 1: 627
sET recieved LOC 0: 20
sET recieved LOC 1: 20
sET recieved LOC 0: 191
sET recieved LOC 1: 191
sET recieved LOC 0: 448
sET recieved LOC 1: 448
sET recieved LOC 0: 1975
sET recieved LOC 1: 1975
sET recieved LOC 0: 658
sET recieved LOC 1: 658
sET recieved LOC 0: 449
sET recieved LOC 1: 449
sET recieved LOC 0: 80
sET recieved LOC 1: 80
sET recieved LOC 0: 306
sET recieved LOC 1: 306
sET recieved LOC 0: 716
sET recieved LOC 1: 716
sET recieved LOC 0: 226
sET recieved LOC 1: 226
sET recieved LOC 0: 2018
sET recieved LOC 1: 2018
sET recieved LOC 0: 2019
sET recieved LOC 1: 2019
sET recieved LOC 0: 695
sET recieved LOC 1: 695
sET recieved LOC 0: 2020
sET recieved LOC 1: 2020
sET recieved LOC 0: 821
sET recieved LOC 1: 821
sET recieved LOC 0: 856
sET recieved LOC 1: 856
sET recieved LOC 0: 947
sET recieved LOC 1: 947
sET recieved LOC 0: 16
sET recieved LOC 1: 16
sET recieved LOC 0: 977
sET recieved LOC 1: 977
sET recieved LOC 0: 1040
sET recieved LOC 1: 1040
sET recieved LOC 0: 2021
sET recieved LOC 1: 2021
sET recieved LOC 0: 2023
sET recieved LOC 1: 2023
sET recieved LOC 0: 1148
sET recieved LOC 1: 1148
sET recieved LOC 0: 1149
sET recieved LOC 1: 1149
sET recieved LOC 0: 227
sET recieved LOC 1: 227
sET recieved LOC 0: 131
sET recieved LOC 1: 131
sET recieved LOC 0: 132
sET recieved LOC 1: 132
sET recieved LOC 0: 133
sET recieved LOC 1: 133
sET recieved LOC 0: 401
sET recieved LOC 1: 401
sET recieved LOC 0: 1194
sET recieved LOC 1: 1194
sET recieved LOC 0: 1229
sET recieved LOC 1: 1229
sET recieved LOC 0: 1230
sET recieved LOC 1: 1230
sET recieved LOC 0: 1231
sET recieved LOC 1: 1231
sET recieved LOC 0: 628
sET recieved LOC 1: 628
sET recieved LOC 0: 1232
sET recieved LOC 1: 1232
sET recieved LOC 0: 1340
sET recieved LOC 1: 1340
sET recieved LOC 0: 2024
sET recieved LOC 1: 2024
sET recieved LOC 0: 2025
sET recieved LOC 1: 2025
sET recieved LOC 0: 2026
sET recieved LOC 1: 2026
sET recieved LOC 0: 330
sET recieved LOC 1: 330
sET recieved LOC 0: 331
sET recieved LOC 1: 331
sET recieved LOC 0: 1379
sET recieved LOC 1: 1379
sET recieved LOC 0: 332
sET recieved LOC 1: 332
sET recieved LOC 0: 1378
sET recieved LOC 1: 1378
sET recieved LOC 0: 338
sET recieved LOC 1: 338
sET recieved LOC 0: 81
sET recieved LOC 1: 81
sET recieved LOC 0: 1377
sET recieved LOC 1: 1377
sET recieved LOC 0: 2027
sET recieved LOC 1: 2027
sET recieved LOC 0: 1443
sET recieved LOC 1: 1443
sET recieved LOC 0: 2031
sET recieved LOC 1: 2031
sET recieved LOC 0: 115
sET recieved LOC 1: 115
sET recieved LOC 0: 1376
sET recieved LOC 1: 1376
sET recieved LOC 0: 2032
sET recieved LOC 1: 2032
sET recieved LOC 0: 2033
sET recieved LOC 1: 2033
sET recieved LOC 0: 1968
sET recieved LOC 1: 1968
sET recieved LOC 0: 663
sET recieved LOC 1: 663
sET recieved LOC 0: 1863
sET recieved LOC 1: 1863
sET recieved LOC 0: 1864
sET recieved LOC 1: 1864
sET recieved LOC 0: 664
sET recieved LOC 1: 664
sET recieved LOC 0: 1534
sET recieved LOC 1: 1534
sET recieved LOC 0: 1536
sET recieved LOC 1: 1536
sET recieved LOC 0: 1865
sET recieved LOC 1: 1865
sET recieved LOC 0: 1891
sET recieved LOC 1: 1891
sET recieved LOC 0: 1866
sET recieved LOC 1: 1866
sET recieved LOC 0: 31
sET recieved LOC 1: 31
sET recieved LOC 0: 1914
sET recieved LOC 1: 1914
sET recieved LOC 0: 1915
sET recieved LOC 1: 1915
sET recieved LOC 0: 1867
sET recieved LOC 1: 1867
sET recieved LOC 0: 37
sET recieved LOC 1: 37
sET recieved LOC 0: 1643
sET recieved LOC 1: 1643
sET recieved LOC 0: 1706
sET recieved LOC 1: 1706
sET recieved LOC 0: 1868
sET recieved LOC 1: 1868
sET recieved LOC 0: 1905
sET recieved LOC 1: 1905
sET recieved LOC 0: 1768
sET recieved LOC 1: 1768
sET recieved LOC 0: 1799
sET recieved LOC 1: 1799
sET recieved LOC 0: 1800
sET recieved LOC 1: 1800
sET recieved LOC 0: 1869
sET recieved LOC 1: 1869
sET recieved LOC 0: 1918
sET recieved LOC 1: 1918
sET recieved LOC 0: 1919
sET recieved LOC 1: 1919
sET recieved LOC 0: 1829
sET recieved LOC 1: 1829
sET recieved LOC 0: 1830
sET recieved LOC 1: 1830
sET recieved LOC 0: 1831
sET recieved LOC 1: 1831
sET recieved LOC 0: 1832
sET recieved LOC 1: 1832
sET recieved LOC 0: 103
sET recieved LOC 1: 103
sET recieved LOC 0: 1870
sET recieved LOC 1: 1870
sET recieved LOC 0: 1895
sET recieved LOC 1: 1895
sET recieved LOC 0: 1896
sET recieved LOC 1: 1896
sET recieved LOC 0: 1897
sET recieved LOC 1: 1897
sET recieved LOC 0: 1898
sET recieved LOC 1: 1898
sET recieved LOC 0: 1793
sET recieved LOC 1: 1793
sET recieved LOC 0: 1794
sET recieved LOC 1: 1794
sET recieved LOC 0: 1869
sET recieved LOC 1: 1869
sET recieved LOC 0: 342
sET recieved LOC 1: 342
sET recieved LOC 0: 343
sET recieved LOC 1: 343
sET recieved LOC 0: 344
sET recieved LOC 1: 344
sET recieved LOC 0: 1953
sET recieved LOC 1: 1953
sET recieved LOC 0: 1469
sET recieved LOC 1: 1469
sET recieved LOC 0: 1620
sET recieved LOC 1: 1620
sET recieved LOC 0: 345
sET recieved LOC 1: 345
sET recieved LOC 0: 346
sET recieved LOC 1: 346
sET recieved LOC 0: 347
sET recieved LOC 1: 347
sET recieved LOC 0: 348
sET recieved LOC 1: 348
sET recieved LOC 0: 657
sET recieved LOC 1: 657
sET recieved LOC 0: 1990
sET recieved LOC 1: 1990
sET recieved LOC 0: 11
sET recieved LOC 1: 11
sET recieved LOC 0: 1468
sET recieved LOC 1: 1468
sET recieved LOC 0: 349
sET recieved LOC 1: 349
sET recieved LOC 0: 10
sET recieved LOC 1: 10
sET recieved LOC 0: 339
sET recieved LOC 1: 339
sET recieved LOC 0: 340
sET recieved LOC 1: 340
sET recieved LOC 0: 91
sET recieved LOC 1: 91
sET recieved LOC 0: 341
sET recieved LOC 1: 341
sET recieved LOC 0: 350
sET recieved LOC 1: 350
sET recieved LOC 0: 1426
sET recieved LOC 1: 1426
sET recieved LOC 0: 351
sET recieved LOC 1: 351
sET recieved LOC 0: 1427
sET recieved LOC 1: 1427
sET recieved LOC 0: 1978
sET recieved LOC 1: 1978
sET recieved LOC 0: 352
sET recieved LOC 1: 352
sET recieved LOC 0: 1899
sET recieved LOC 1: 1899
sET recieved LOC 0: 1424
sET recieved LOC 1: 1424
sET recieved LOC 0: 1795
sET recieved LOC 1: 1795
sET recieved LOC 0: 64
sET recieved LOC 1: 64
sET recieved LOC 0: 74
sET recieved LOC 1: 74
sET recieved LOC 0: 10
sET recieved LOC 1: 10
sET recieved LOC 0: 659
sET recieved LOC 1: 659
sET recieved LOC 0: 1454
sET recieved LOC 1: 1454
sET recieved LOC 0: 1452
sET recieved LOC 1: 1452
sET recieved LOC 0: 1451
sET recieved LOC 1: 1451
sET recieved LOC 0: 104
sET recieved LOC 1: 104
sET recieved LOC 0: 1380
sET recieved LOC 1: 1380
sET recieved LOC 0: 127
sET recieved LOC 1: 127
sET recieved LOC 0: 1796
sET recieved LOC 1: 1796
sET recieved LOC 0: 1901
sET recieved LOC 1: 1901
sET recieved LOC 0: 1902
sET recieved LOC 1: 1902
sET recieved LOC 0: 1903
sET recieved LOC 1: 1903
sET recieved LOC 0: 1797
sET recieved LOC 1: 1797
sET recieved LOC 0: 1822
sET recieved LOC 1: 1822
sET recieved LOC 0: 1823
sET recieved LOC 1: 1823
sET recieved LOC 0: 105
sET recieved LOC 1: 105
sET recieved LOC 0: 1381
sET recieved LOC 1: 1381
sET recieved LOC 0: 191
sET recieved LOC 1: 191
sET recieved LOC 0: 1450
sET recieved LOC 1: 1450
sET recieved LOC 0: 1448
sET recieved LOC 1: 1448
sET recieved LOC 0: 0
sET recieved LOC 1: 0
sET recieved LOC 0: 1449
sET recieved LOC 1: 1449
sET recieved LOC 0: 195
sET recieved LOC 1: 195
sET recieved LOC 0: 256
sET recieved LOC 1: 256
sET recieved LOC 0: 1196
sET recieved LOC 1: 1196
sET recieved LOC 0: 1892
sET recieved LOC 1: 1892
sET recieved LOC 0: 1792
sET recieved LOC 1: 1792
sET recieved LOC 0: 1871
sET recieved LOC 1: 1871
sET recieved LOC 0: 1872
sET recieved LOC 1: 1872
sET recieved LOC 0: 1873
sET recieved LOC 1: 1873
sET recieved LOC 0: 1874
sET recieved LOC 1: 1874
sET recieved LOC 0: 1809
sET recieved LOC 1: 1809
sET recieved LOC 0: 1875
sET recieved LOC 1: 1875
sET recieved LOC 0: 1876
sET recieved LOC 1: 1876
sET recieved LOC 0: 1801
sET recieved LOC 1: 1801
sET recieved LOC 0: 1879
sET recieved LOC 1: 1879
sET recieved LOC 0: 1814
sET recieved LOC 1: 1814
sET recieved LOC 0: 1881
sET recieved LOC 1: 1881
sET recieved LOC 0: 1810
sET recieved LOC 1: 1810
sET recieved LOC 0: 1884
sET recieved LOC 1: 1884
sET recieved LOC 0: 1885
sET recieved LOC 1: 1885
sET recieved LOC 0: 1886
sET recieved LOC 1: 1886
sET recieved LOC 0: 1993
sET recieved LOC 1: 1993
sET recieved LOC 0: 1233
sET recieved LOC 1: 1233
sET recieved LOC 0: 1234
sET recieved LOC 1: 1234
sET recieved LOC 0: 1235
sET recieved LOC 1: 1235
sET recieved LOC 0: 1236
sET recieved LOC 1: 1236
sET recieved LOC 0: 1237
sET recieved LOC 1: 1237
sET recieved LOC 0: 365
sET recieved LOC 1: 365
sET recieved LOC 0: 444
sET recieved LOC 1: 444
sET recieved LOC 0: 1197
sET recieved LOC 1: 1197
sET recieved LOC 0: 333
sET recieved LOC 1: 333
sET recieved LOC 0: 334
sET recieved LOC 1: 334
sET recieved LOC 0: 335
sET recieved LOC 1: 335
sET recieved LOC 0: 139
sET recieved LOC 1: 139
sET recieved LOC 0: 230
sET recieved LOC 1: 230
sET recieved LOC 0: 232
sET recieved LOC 1: 232
sET recieved LOC 0: 233
sET recieved LOC 1: 233
sET recieved LOC 0: 315
sET recieved LOC 1: 315
sET recieved LOC 0: 316
sET recieved LOC 1: 316
sET recieved LOC 0: 532
sET recieved LOC 1: 532
sET recieved LOC 0: 533
sET recieved LOC 1: 533
sET recieved LOC 0: 534
sET recieved LOC 1: 534
sET recieved LOC 0: 539
sET recieved LOC 1: 539
sET recieved LOC 0: 538
sET recieved LOC 1: 538
sET recieved LOC 0: 317
sET recieved LOC 1: 317
sET recieved LOC 0: 310
sET recieved LOC 1: 310
sET recieved LOC 0: 311
sET recieved LOC 1: 311
sET recieved LOC 0: 318
sET recieved LOC 1: 318
sET recieved LOC 0: 1974
sET recieved LOC 1: 1974
sET recieved LOC 0: 1976
sET recieved LOC 1: 1976
sET recieved LOC 0: 133
sET recieved LOC 1: 133
sET recieved LOC 0: 22
sET recieved LOC 1: 22
sET recieved LOC 0: 312
sET recieved LOC 1: 312
sET recieved LOC 0: 314
sET recieved LOC 1: 314
sET recieved LOC 0: 234
sET recieved LOC 1: 234
sET recieved LOC 0: 510
sET recieved LOC 1: 510
sET recieved LOC 0: 511
sET recieved LOC 1: 511
sET recieved LOC 0: 192
sET recieved LOC 1: 192
sET recieved LOC 0: 193
sET recieved LOC 1: 193
sET recieved LOC 0: 548
sET recieved LOC 1: 548
sET recieved LOC 0: 297
sET recieved LOC 1: 297
sET recieved LOC 0: 294
sET recieved LOC 1: 294
sET recieved LOC 0: 295
sET recieved LOC 1: 295
sET recieved LOC 0: 268
sET recieved LOC 1: 268
sET recieved LOC 0: 307
sET recieved LOC 1: 307
sET recieved LOC 0: 308
sET recieved LOC 1: 308
sET recieved LOC 0: 309
sET recieved LOC 1: 309
sET recieved LOC 0: 40
sET recieved LOC 1: 40
sET recieved LOC 0: 1198
sET recieved LOC 1: 1198
sET recieved LOC 0: 1375
sET recieved LOC 1: 1375
sET recieved LOC 0: 1374
sET recieved LOC 1: 1374
sET recieved LOC 0: 1373
sET recieved LOC 1: 1373
sET recieved LOC 0: 23
sET recieved LOC 1: 23
sET recieved LOC 0: 1372
sET recieved LOC 1: 1372
sET recieved LOC 0: 1371
sET recieved LOC 1: 1371
sET recieved LOC 0: 1370
sET recieved LOC 1: 1370
sET recieved LOC 0: 1369
sET recieved LOC 1: 1369
sET recieved LOC 0: 134
sET recieved LOC 1: 134
sET recieved LOC 0: 43
sET recieved LOC 1: 43
sET recieved LOC 0: 52
sET recieved LOC 1: 52
sET recieved LOC 0: 1425
sET recieved LOC 1: 1425
sET recieved LOC 0: 1343
sET recieved LOC 1: 1343
sET recieved LOC 0: 53
sET recieved LOC 1: 53
sET recieved LOC 0: 54
sET recieved LOC 1: 54
sET recieved LOC 0: 1368
sET recieved LOC 1: 1368
sET recieved LOC 0: 1367
sET recieved LOC 1: 1367
sET recieved LOC 0: 1366
sET recieved LOC 1: 1366
sET recieved LOC 0: 1365
sET recieved LOC 1: 1365
sET recieved LOC 0: 56
sET recieved LOC 1: 56
sET recieved LOC 0: 584
sET recieved LOC 1: 584
sET recieved LOC 0: 55
sET recieved LOC 1: 55
sET recieved LOC 0: 647
sET recieved LOC 1: 647
sET recieved LOC 0: 648
sET recieved LOC 1: 648
sET recieved LOC 0: 655
sET recieved LOC 1: 655
sET recieved LOC 0: 653
sET recieved LOC 1: 653
sET recieved LOC 0: 313
sET recieved LOC 1: 313
sET recieved LOC 0: 586
sET recieved LOC 1: 586
sET recieved LOC 0: 587
sET recieved LOC 1: 587
sET recieved LOC 0: 1193
sET recieved LOC 1: 1193
sET recieved LOC 0: 1364
sET recieved LOC 1: 1364
sET recieved LOC 0: 12
sET recieved LOC 1: 12
sET recieved LOC 0: 1363
sET recieved LOC 1: 1363
sET recieved LOC 0: 1362
sET recieved LOC 1: 1362
sET recieved LOC 0: 1361
sET recieved LOC 1: 1361
sET recieved LOC 0: 588
sET recieved LOC 1: 588
sET recieved LOC 0: 167
sET recieved LOC 1: 167
sET recieved LOC 0: 596
sET recieved LOC 1: 596
sET recieved LOC 0: 168
sET recieved LOC 1: 168
sET recieved LOC 0: 1342
sET recieved LOC 1: 1342
sET recieved LOC 0: 597
sET recieved LOC 1: 597
sET recieved LOC 0: 1192
sET recieved LOC 1: 1192
sET recieved LOC 0: 757
sET recieved LOC 1: 757
sET recieved LOC 0: 758
sET recieved LOC 1: 758
sET recieved LOC 0: 796
sET recieved LOC 1: 796
sET recieved LOC 0: 804
sET recieved LOC 1: 804
sET recieved LOC 0: 598
sET recieved LOC 1: 598
sET recieved LOC 0: 797
sET recieved LOC 1: 797
sET recieved LOC 0: 812
sET recieved LOC 1: 812
sET recieved LOC 0: 813
sET recieved LOC 1: 813
sET recieved LOC 0: 1360
sET recieved LOC 1: 1360
sET recieved LOC 0: 1359
sET recieved LOC 1: 1359
sET recieved LOC 0: 599
sET recieved LOC 1: 599
sET recieved LOC 0: 600
sET recieved LOC 1: 600
sET recieved LOC 0: 620
sET recieved LOC 1: 620
sET recieved LOC 0: 621
sET recieved LOC 1: 621
sET recieved LOC 0: 1157
sET recieved LOC 1: 1157
sET recieved LOC 0: 1358
sET recieved LOC 1: 1358
sET recieved LOC 0: 1357
sET recieved LOC 1: 1357
sET recieved LOC 0: 1356
sET recieved LOC 1: 1356
sET recieved LOC 0: 624
sET recieved LOC 1: 624
sET recieved LOC 0: 633
sET recieved LOC 1: 633
sET recieved LOC 0: 1341
sET recieved LOC 1: 1341
sET recieved LOC 0: 634
sET recieved LOC 1: 634
sET recieved LOC 0: 635
sET recieved LOC 1: 635
sET recieved LOC 0: 636
sET recieved LOC 1: 636
sET recieved LOC 0: 889
sET recieved LOC 1: 889
sET recieved LOC 0: 897
sET recieved LOC 1: 897
sET recieved LOC 0: 416
sET recieved LOC 1: 416
sET recieved LOC 0: 424
sET recieved LOC 1: 424
sET recieved LOC 0: 431
sET recieved LOC 1: 431
sET recieved LOC 0: 439
sET recieved LOC 1: 439
sET recieved LOC 0: 446
sET recieved LOC 1: 446
sET recieved LOC 0: 966
sET recieved LOC 1: 966
sET recieved LOC 0: 973
sET recieved LOC 1: 973
sET recieved LOC 0: 402
sET recieved LOC 1: 402
sET recieved LOC 0: 980
sET recieved LOC 1: 980
sET recieved LOC 0: 988
sET recieved LOC 1: 988
sET recieved LOC 0: 995
sET recieved LOC 1: 995
sET recieved LOC 0: 1003
sET recieved LOC 1: 1003
sET recieved LOC 0: 1010
sET recieved LOC 1: 1010
sET recieved LOC 0: 1018
sET recieved LOC 1: 1018
sET recieved LOC 0: 1025
sET recieved LOC 1: 1025
sET recieved LOC 0: 1033
sET recieved LOC 1: 1033
sET recieved LOC 0: 1040
sET recieved LOC 1: 1040
sET recieved LOC 0: 1047
sET recieved LOC 1: 1047
sET recieved LOC 0: 1055
sET recieved LOC 1: 1055
sET recieved LOC 0: 1062
sET recieved LOC 1: 1062
sET recieved LOC 0: 1070
sET recieved LOC 1: 1070
sET recieved LOC 0: 1077
sET recieved LOC 1: 1077
sET recieved LOC 0: 1085
sET recieved LOC 1: 1085
sET recieved LOC 0: 1092
sET recieved LOC 1: 1092
sET recieved LOC 0: 1099
sET recieved LOC 1: 1099
sET recieved LOC 0: 1107
sET recieved LOC 1: 1107
sET recieved LOC 0: 1114
sET recieved LOC 1: 1114
sET recieved LOC 0: 1122
sET recieved LOC 1: 1122
sET recieved LOC 0: 1129
sET recieved LOC 1: 1129
sET recieved LOC 0: 1137
sET recieved LOC 1: 1137
sET recieved LOC 0: 1144
sET recieved LOC 1: 1144
sET recieved LOC 0: 1152
sET recieved LOC 1: 1152
sET recieved LOC 0: 1159
sET recieved LOC 1: 1159
sET recieved LOC 0: 1166
sET recieved LOC 1: 1166
sET recieved LOC 0: 1174
sET recieved LOC 1: 1174
sET recieved LOC 0: 1181
sET recieved LOC 1: 1181
sET recieved LOC 0: 1189
sET recieved LOC 1: 1189
sET recieved LOC 0: 1196
sET recieved LOC 1: 1196
sET recieved LOC 0: 1204
sET recieved LOC 1: 1204
sET recieved LOC 0: 1211
sET recieved LOC 1: 1211
sET recieved LOC 0: 1218
sET recieved LOC 1: 1218
sET recieved LOC 0: 1226
sET recieved LOC 1: 1226
sET recieved LOC 0: 1233
sET recieved LOC 1: 1233
sET recieved LOC 0: 1241
sET recieved LOC 1: 1241
sET recieved LOC 0: 1248
sET recieved LOC 1: 1248
sET recieved LOC 0: 1256
sET recieved LOC 1: 1256
sET recieved LOC 0: 1263
sET recieved LOC 1: 1263
sET recieved LOC 0: 1271
sET recieved LOC 1: 1271
sET recieved LOC 0: 1278
sET recieved LOC 1: 1278
sET recieved LOC 0: 1285
sET recieved LOC 1: 1285
sET recieved LOC 0: 1293
sET recieved LOC 1: 1293
sET recieved LOC 0: 1300
sET recieved LOC 1: 1300
sET recieved LOC 0: 1308
sET recieved LOC 1: 1308
sET recieved LOC 0: 1315
sET recieved LOC 1: 1315
sET recieved LOC 0: 1323
sET recieved LOC 1: 1323
sET recieved LOC 0: 1330
sET recieved LOC 1: 1330
sET recieved LOC 0: 1337
sET recieved LOC 1: 1337
sET recieved LOC 0: 1345
sET recieved LOC 1: 1345
sET recieved LOC 0: 1352
sET recieved LOC 1: 1352
sET recieved LOC 0: 1360
sET recieved LOC 1: 1360
sET recieved LOC 0: 1367
sET recieved LOC 1: 1367
sET recieved LOC 0: 1375
sET recieved LOC 1: 1375
sET recieved LOC 0: 1382
sET recieved LOC 1: 1382
sET recieved LOC 0: 1390
sET recieved LOC 1: 1390
sET recieved LOC 0: 1397
sET recieved LOC 1: 1397
sET recieved LOC 0: 1404
sET recieved LOC 1: 1404
sET recieved LOC 0: 1412
sET recieved LOC 1: 1412
sET recieved LOC 0: 1419
sET recieved LOC 1: 1419
sET recieved LOC 0: 1427
sET recieved LOC 1: 1427
sET recieved LOC 0: 1434
sET recieved LOC 1: 1434
sET recieved LOC 0: 1442
sET recieved LOC 1: 1442
sET recieved LOC 0: 1449
sET recieved LOC 1: 1449
sET recieved LOC 0: 1456
sET recieved LOC 1: 1456
sET recieved LOC 0: 1464
sET recieved LOC 1: 1464
sET recieved LOC 0: 1471
sET recieved LOC 1: 1471
sET recieved LOC 0: 1479
sET recieved LOC 1: 1479
sET recieved LOC 0: 1486
sET recieved LOC 1: 1486
sET recieved LOC 0: 1494
sET recieved LOC 1: 1494
sET recieved LOC 0: 806
sET recieved LOC 1: 806
sET recieved LOC 0: 807
sET recieved LOC 1: 807
sET recieved LOC 0: 756
sET recieved LOC 1: 756
sET recieved LOC 0: 1501
sET recieved LOC 1: 1501
sET recieved LOC 0: 1509
sET recieved LOC 1: 1509
sET recieved LOC 0: 755
sET recieved LOC 1: 755
sET recieved LOC 0: 1516
sET recieved LOC 1: 1516
sET recieved LOC 0: 1540
sET recieved LOC 1: 1540
sET recieved LOC 0: 1523
sET recieved LOC 1: 1523
sET recieved LOC 0: 1541
sET recieved LOC 1: 1541
sET recieved LOC 0: 1531
sET recieved LOC 1: 1531
sET recieved LOC 0: 1538
sET recieved LOC 1: 1538
sET recieved LOC 0: 1602
sET recieved LOC 1: 1602
sET recieved LOC 0: 1610
sET recieved LOC 1: 1610
sET recieved LOC 0: 1539
sET recieved LOC 1: 1539
sET recieved LOC 0: 1617
sET recieved LOC 1: 1617
sET recieved LOC 0: 1625
sET recieved LOC 1: 1625
sET recieved LOC 0: 1632
sET recieved LOC 1: 1632
sET recieved LOC 0: 1639
sET recieved LOC 1: 1639
sET recieved LOC 0: 1647
sET recieved LOC 1: 1647
sET recieved LOC 0: 1654
sET recieved LOC 1: 1654
sET recieved LOC 0: 1662
sET recieved LOC 1: 1662
sET recieved LOC 0: 1669
sET recieved LOC 1: 1669
sET recieved LOC 0: 1677
sET recieved LOC 1: 1677
sET recieved LOC 0: 1760
sET recieved LOC 1: 1760
sET recieved LOC 0: 1684
sET recieved LOC 1: 1684
sET recieved LOC 0: 1761
sET recieved LOC 1: 1761
sET recieved LOC 0: 1692
sET recieved LOC 1: 1692
sET recieved LOC 0: 1762
sET recieved LOC 1: 1762
sET recieved LOC 0: 1764
sET recieved LOC 1: 1764
sET recieved LOC 0: 1699
sET recieved LOC 1: 1699
sET recieved LOC 0: 1706
sET recieved LOC 1: 1706
sET recieved LOC 0: 1714
sET recieved LOC 1: 1714
sET recieved LOC 0: 1721
sET recieved LOC 1: 1721
sET recieved LOC 0: 1771
sET recieved LOC 1: 1771
sET recieved LOC 0: 1765
sET recieved LOC 1: 1765
sET recieved LOC 0: 1769
sET recieved LOC 1: 1769
sET recieved LOC 0: 1770
sET recieved LOC 1: 1770
sET recieved LOC 0: 1853
sET recieved LOC 1: 1853
sET recieved LOC 0: 1854
sET recieved LOC 1: 1854
sET recieved LOC 0: 1855
sET recieved LOC 1: 1855
sET recieved LOC 0: 637
sET recieved LOC 1: 637
sET recieved LOC 0: 638
sET recieved LOC 1: 638
sET recieved LOC 0: 1850
sET recieved LOC 1: 1850
sET recieved LOC 0: 1851
sET recieved LOC 1: 1851
sET recieved LOC 0: 1852
sET recieved LOC 1: 1852
sET recieved LOC 0: 1729
sET recieved LOC 1: 1729
sET recieved LOC 0: 204
sET recieved LOC 1: 204
sET recieved LOC 0: 1843
sET recieved LOC 1: 1843
sET recieved LOC 0: 639
sET recieved LOC 1: 639
sET recieved LOC 0: 347
sET recieved LOC 1: 347
sET recieved LOC 0: 256
sET recieved LOC 1: 256
sET recieved LOC 0: 263
sET recieved LOC 1: 263
sET recieved LOC 0: 206
sET recieved LOC 1: 206
sET recieved LOC 0: 348
sET recieved LOC 1: 348
sET recieved LOC 0: 349
sET recieved LOC 1: 349
sET recieved LOC 0: 2013
sET recieved LOC 1: 2013
sET recieved LOC 0: 350
sET recieved LOC 1: 350
sET recieved LOC 0: 359
sET recieved LOC 1: 359
sET recieved LOC 0: 351
sET recieved LOC 1: 351
sET recieved LOC 0: 45
sET recieved LOC 1: 45
sET recieved LOC 0: 1844
sET recieved LOC 1: 1844
sET recieved LOC 0: 20
sET recieved LOC 1: 20
sET recieved LOC 0: 1734
sET recieved LOC 1: 1734
sET recieved LOC 0: 1735
sET recieved LOC 1: 1735
sET recieved LOC 0: 2014
sET recieved LOC 1: 2014
sET recieved LOC 0: 1736
sET recieved LOC 1: 1736
sET recieved LOC 0: 2039
sET recieved LOC 1: 2039
sET recieved LOC 0: 288
sET recieved LOC 1: 288
sET recieved LOC 0: 2038
sET recieved LOC 1: 2038
sET recieved LOC 0: 79
sET recieved LOC 1: 79
sET recieved LOC 0: 313
sET recieved LOC 1: 313
sET recieved LOC 0: 354
sET recieved LOC 1: 354
sET recieved LOC 0: 358
sET recieved LOC 1: 358
sET recieved LOC 0: 21
sET recieved LOC 1: 21
sET recieved LOC 0: 2011
sET recieved LOC 1: 2011
sET recieved LOC 0: 261
sET recieved LOC 1: 261
sET recieved LOC 0: 355
sET recieved LOC 1: 355
sET recieved LOC 0: 2036
sET recieved LOC 1: 2036
sET recieved LOC 0: 286
sET recieved LOC 1: 286
sET recieved LOC 0: 2015
sET recieved LOC 1: 2015
sET recieved LOC 0: 264
sET recieved LOC 1: 264
sET recieved LOC 0: 2040
sET recieved LOC 1: 2040
sET recieved LOC 0: 289
sET recieved LOC 1: 289
sET recieved LOC 0: 81
sET recieved LOC 1: 81
sET recieved LOC 0: 314
sET recieved LOC 1: 314
sET recieved LOC 0: 57
sET recieved LOC 1: 57
sET recieved LOC 0: 2012
sET recieved LOC 1: 2012
sET recieved LOC 0: 262
sET recieved LOC 1: 262
sET recieved LOC 0: 2037
sET recieved LOC 1: 2037
sET recieved LOC 0: 287
sET recieved LOC 1: 287
sET recieved LOC 0: 260
sET recieved LOC 1: 260
sET recieved LOC 0: 285
sET recieved LOC 1: 285
sET recieved LOC 0: 2010
sET recieved LOC 1: 2010
sET recieved LOC 0: 259
sET recieved LOC 1: 259
sET recieved LOC 0: 2035
sET recieved LOC 1: 2035
sET recieved LOC 0: 284
sET recieved LOC 1: 284
sET recieved LOC 0: 360
sET recieved LOC 1: 360
sET recieved LOC 0: 207
sET recieved LOC 1: 207
sET recieved LOC 0: 1730
sET recieved LOC 1: 1730
sET recieved LOC 0: 265
sET recieved LOC 1: 265
sET recieved LOC 0: 1731
sET recieved LOC 1: 1731
sET recieved LOC 0: 290
sET recieved LOC 1: 290
sET recieved LOC 0: 315
sET recieved LOC 1: 315
sET recieved LOC 0: 1732
sET recieved LOC 1: 1732
sET recieved LOC 0: 1733
sET recieved LOC 1: 1733
sET recieved LOC 0: 145
sET recieved LOC 1: 145
sET recieved LOC 0: 146
sET recieved LOC 1: 146
sET recieved LOC 0: 1739
sET recieved LOC 1: 1739
sET recieved LOC 0: 1740
sET recieved LOC 1: 1740
sET recieved LOC 0: 1741
sET recieved LOC 1: 1741
sET recieved LOC 0: 1742
sET recieved LOC 1: 1742
sET recieved LOC 0: 1758
sET recieved LOC 1: 1758
sET recieved LOC 0: 1753
sET recieved LOC 1: 1753
sET recieved LOC 0: 1757
sET recieved LOC 1: 1757
sET recieved LOC 0: 2016
sET recieved LOC 1: 2016
sET recieved LOC 0: 266
sET recieved LOC 1: 266
sET recieved LOC 0: 2041
sET recieved LOC 1: 2041
sET recieved LOC 0: 291
sET recieved LOC 1: 291
sET recieved LOC 0: 1743
sET recieved LOC 1: 1743
sET recieved LOC 0: 1275
sET recieved LOC 1: 1275
sET recieved LOC 0: 1276
sET recieved LOC 1: 1276
sET recieved LOC 0: 1277
sET recieved LOC 1: 1277
sET recieved LOC 0: 513
sET recieved LOC 1: 513
sET recieved LOC 0: 82
sET recieved LOC 1: 82
sET recieved LOC 0: 4
sET recieved LOC 1: 4
sET recieved LOC 0: 238
sET recieved LOC 1: 238
sET recieved LOC 0: 316
sET recieved LOC 1: 316
sET recieved LOC 0: 107
sET recieved LOC 1: 107
sET recieved LOC 0: 1278
sET recieved LOC 1: 1278
sET recieved LOC 0: 1744
sET recieved LOC 1: 1744
sET recieved LOC 0: 213
sET recieved LOC 1: 213
sET recieved LOC 0: 22
sET recieved LOC 1: 22
sET recieved LOC 0: 263
sET recieved LOC 1: 263
sET recieved LOC 0: 512
sET recieved LOC 1: 512
sET recieved LOC 0: 1759
sET recieved LOC 1: 1759
sET recieved LOC 0: 1745
sET recieved LOC 1: 1745
sET recieved LOC 0: 1746
sET recieved LOC 1: 1746
sET recieved LOC 0: 1748
sET recieved LOC 1: 1748
sET recieved LOC 0: 1752
sET recieved LOC 1: 1752
sET recieved LOC 0: 1790
sET recieved LOC 1: 1790
sET recieved LOC 0: 1791
sET recieved LOC 1: 1791
sET recieved LOC 0: 321
sET recieved LOC 1: 321
sET recieved LOC 0: 322
sET recieved LOC 1: 322
sET recieved LOC 0: 205
sET recieved LOC 1: 205
sET recieved LOC 0: 1798
sET recieved LOC 1: 1798
sET recieved LOC 0: 723
sET recieved LOC 1: 723
sET recieved LOC 0: 239
sET recieved LOC 1: 239
sET recieved LOC 0: 203
sET recieved LOC 1: 203
sET recieved LOC 0: 202
sET recieved LOC 1: 202
sET recieved LOC 0: 200
sET recieved LOC 1: 200
sET recieved LOC 0: 199
sET recieved LOC 1: 199
sET recieved LOC 0: 1877
sET recieved LOC 1: 1877
sET recieved LOC 0: 1852
sET recieved LOC 1: 1852
sET recieved LOC 0: 1878
sET recieved LOC 1: 1878
sET recieved LOC 0: 1880
sET recieved LOC 1: 1880
sET recieved LOC 0: 198
sET recieved LOC 1: 198
sET recieved LOC 0: 1805
sET recieved LOC 1: 1805
sET recieved LOC 0: 1806
sET recieved LOC 1: 1806
sET recieved LOC 0: 197
sET recieved LOC 1: 197
sET recieved LOC 0: 323
sET recieved LOC 1: 323
sET recieved LOC 0: 196
sET recieved LOC 1: 196
sET recieved LOC 0: 320
sET recieved LOC 1: 320
sET recieved LOC 0: 329
sET recieved LOC 1: 329
sET recieved LOC 0: 330
sET recieved LOC 1: 330
sET recieved LOC 0: 331
sET recieved LOC 1: 331
sET recieved LOC 0: 1423
sET recieved LOC 1: 1423
sET recieved LOC 0: 179
sET recieved LOC 1: 179
sET recieved LOC 0: 333
sET recieved LOC 1: 333
sET recieved LOC 0: 1250
sET recieved LOC 1: 1250
sET recieved LOC 0: 1251
sET recieved LOC 1: 1251
sET recieved LOC 0: 1252
sET recieved LOC 1: 1252
sET recieved LOC 0: 1253
sET recieved LOC 1: 1253
sET recieved LOC 0: 1254
sET recieved LOC 1: 1254
sET recieved LOC 0: 1255
sET recieved LOC 1: 1255
sET recieved LOC 0: 334
sET recieved LOC 1: 334
sET recieved LOC 0: 335
sET recieved LOC 1: 335
sET recieved LOC 0: 336
sET recieved LOC 1: 336
sET recieved LOC 0: 337
sET recieved LOC 1: 337
sET recieved LOC 0: 340
sET recieved LOC 1: 340
sET recieved LOC 0: 341
sET recieved LOC 1: 341
sET recieved LOC 0: 482
sET recieved LOC 1: 482
sET recieved LOC 0: 483
sET recieved LOC 1: 483
sET recieved LOC 0: 484
sET recieved LOC 1: 484
sET recieved LOC 0: 169
sET recieved LOC 1: 169
sET recieved LOC 0: 450
sET recieved LOC 1: 450
sET recieved LOC 0: 144
sET recieved LOC 1: 144
sET recieved LOC 0: 454
sET recieved LOC 1: 454
sET recieved LOC 0: 455
sET recieved LOC 1: 455
sET recieved LOC 0: 456
sET recieved LOC 1: 456
sET recieved LOC 0: 142
sET recieved LOC 1: 142
sET recieved LOC 0: 143
sET recieved LOC 1: 143
sET recieved LOC 0: 144
sET recieved LOC 1: 144
sET recieved LOC 0: 339
sET recieved LOC 1: 339
sET recieved LOC 0: 343
sET recieved LOC 1: 343
sET recieved LOC 0: 1845
sET recieved LOC 1: 1845
sET recieved LOC 0: 1846
sET recieved LOC 1: 1846
sET recieved LOC 0: 52
sET recieved LOC 1: 52
sET recieved LOC 0: 1847
sET recieved LOC 1: 1847
sET recieved LOC 0: 161
sET recieved LOC 1: 161
sET recieved LOC 0: 51
sET recieved LOC 1: 51
sET recieved LOC 0: 162
sET recieved LOC 1: 162
sET recieved LOC 0: 524
sET recieved LOC 1: 524
sET recieved LOC 0: 815
sET recieved LOC 1: 815
sET recieved LOC 0: 525
sET recieved LOC 1: 525
sET recieved LOC 0: 526
sET recieved LOC 1: 526
sET recieved LOC 0: 527
sET recieved LOC 1: 527
sET recieved LOC 0: 529
sET recieved LOC 1: 529
sET recieved LOC 0: 50
sET recieved LOC 1: 50
sET recieved LOC 0: 163
sET recieved LOC 1: 163
sET recieved LOC 0: 164
sET recieved LOC 1: 164
sET recieved LOC 0: 397
sET recieved LOC 1: 397
sET recieved LOC 0: 49
sET recieved LOC 1: 49
sET recieved LOC 0: 888
sET recieved LOC 1: 888
sET recieved LOC 0: 886
sET recieved LOC 1: 886
sET recieved LOC 0: 978
sET recieved LOC 1: 978
sET recieved LOC 0: 614
sET recieved LOC 1: 614
sET recieved LOC 0: 613
sET recieved LOC 1: 613
sET recieved LOC 0: 612
sET recieved LOC 1: 612
sET recieved LOC 0: 577
sET recieved LOC 1: 577
sET recieved LOC 0: 63
sET recieved LOC 1: 63
sET recieved LOC 0: 62
sET recieved LOC 1: 62
sET recieved LOC 0: 579
sET recieved LOC 1: 579
sET recieved LOC 0: 19
sET recieved LOC 1: 19
sET recieved LOC 0: 254
sET recieved LOC 1: 254
sET recieved LOC 0: 2007
sET recieved LOC 1: 2007
sET recieved LOC 0: 2032
sET recieved LOC 1: 2032
sET recieved LOC 0: 73
sET recieved LOC 1: 73
sET recieved LOC 0: 98
sET recieved LOC 1: 98
sET recieved LOC 0: 255
sET recieved LOC 1: 255
sET recieved LOC 0: 2008
sET recieved LOC 1: 2008
sET recieved LOC 0: 2033
sET recieved LOC 1: 2033
sET recieved LOC 0: 74
sET recieved LOC 1: 74
sET recieved LOC 0: 99
sET recieved LOC 1: 99
sET recieved LOC 0: 1984
sET recieved LOC 1: 1984
sET recieved LOC 0: 2009
sET recieved LOC 1: 2009
sET recieved LOC 0: 2034
sET recieved LOC 1: 2034
sET recieved LOC 0: 75
sET recieved LOC 1: 75
sET recieved LOC 0: 100
sET recieved LOC 1: 100
sET recieved LOC 0: 1985
sET recieved LOC 1: 1985
sET recieved LOC 0: 76
sET recieved LOC 1: 76
sET recieved LOC 0: 101
sET recieved LOC 1: 101
sET recieved LOC 0: 1986
sET recieved LOC 1: 1986
sET recieved LOC 0: 77
sET recieved LOC 1: 77
sET recieved LOC 0: 102
sET recieved LOC 1: 102
sET recieved LOC 0: 1987
sET recieved LOC 1: 1987
sET recieved LOC 0: 78
sET recieved LOC 1: 78
sET recieved LOC 0: 103
sET recieved LOC 1: 103
sET recieved LOC 0: 1988
sET recieved LOC 1: 1988
sET recieved LOC 0: 104
sET recieved LOC 1: 104
sET recieved LOC 0: 1989
sET recieved LOC 1: 1989
sET recieved LOC 0: 80
sET recieved LOC 1: 80
sET recieved LOC 0: 105
sET recieved LOC 1: 105
sET recieved LOC 0: 1990
sET recieved LOC 1: 1990
sET recieved LOC 0: 106
sET recieved LOC 1: 106
sET recieved LOC 0: 1991
sET recieved LOC 1: 1991
sET recieved LOC 0: 1992
sET recieved LOC 1: 1992
sET recieved LOC 0: 2017
sET recieved LOC 1: 2017
sET recieved LOC 0: 2042
sET recieved LOC 1: 2042
sET recieved LOC 0: 83
sET recieved LOC 1: 83
sET recieved LOC 0: 108
sET recieved LOC 1: 108
sET recieved LOC 0: 1993
sET recieved LOC 1: 1993
sET recieved LOC 0: 2018
sET recieved LOC 1: 2018
sET recieved LOC 0: 2043
sET recieved LOC 1: 2043
sET recieved LOC 0: 84
sET recieved LOC 1: 84
sET recieved LOC 0: 109
sET recieved LOC 1: 109
sET recieved LOC 0: 1994
sET recieved LOC 1: 1994
sET recieved LOC 0: 2019
sET recieved LOC 1: 2019
sET recieved LOC 0: 2044
sET recieved LOC 1: 2044
sET recieved LOC 0: 85
sET recieved LOC 1: 85
sET recieved LOC 0: 110
sET recieved LOC 1: 110
sET recieved LOC 0: 1995
sET recieved LOC 1: 1995
sET recieved LOC 0: 2020
sET recieved LOC 1: 2020
sET recieved LOC 0: 2045
sET recieved LOC 1: 2045
sET recieved LOC 0: 86
sET recieved LOC 1: 86
sET recieved LOC 0: 111
sET recieved LOC 1: 111
sET recieved LOC 0: 1996
sET recieved LOC 1: 1996
sET recieved LOC 0: 2021
sET recieved LOC 1: 2021
sET recieved LOC 0: 2046
sET recieved LOC 1: 2046
sET recieved LOC 0: 87
sET recieved LOC 1: 87
sET recieved LOC 0: 112
sET recieved LOC 1: 112
sET recieved LOC 0: 1997
sET recieved LOC 1: 1997
sET recieved LOC 0: 2022
sET recieved LOC 1: 2022
sET recieved LOC 0: 2047
sET recieved LOC 1: 2047
sET recieved LOC 0: 88
sET recieved LOC 1: 88
sET recieved LOC 0: 113
sET recieved LOC 1: 113
sET recieved LOC 0: 1998
sET recieved LOC 1: 1998
sET recieved LOC 0: 2023
sET recieved LOC 1: 2023
sET recieved LOC 0: 64
sET recieved LOC 1: 64
sET recieved LOC 0: 89
sET recieved LOC 1: 89
sET recieved LOC 0: 114
sET recieved LOC 1: 114
sET recieved LOC 0: 1999
sET recieved LOC 1: 1999
sET recieved LOC 0: 2024
sET recieved LOC 1: 2024
sET recieved LOC 0: 65
sET recieved LOC 1: 65
sET recieved LOC 0: 90
sET recieved LOC 1: 90
sET recieved LOC 0: 115
sET recieved LOC 1: 115
sET recieved LOC 0: 2000
sET recieved LOC 1: 2000
sET recieved LOC 0: 2025
sET recieved LOC 1: 2025
sET recieved LOC 0: 66
sET recieved LOC 1: 66
sET recieved LOC 0: 91
sET recieved LOC 1: 91
sET recieved LOC 0: 116
sET recieved LOC 1: 116
sET recieved LOC 0: 2001
sET recieved LOC 1: 2001
sET recieved LOC 0: 2026
sET recieved LOC 1: 2026
sET recieved LOC 0: 67
sET recieved LOC 1: 67
sET recieved LOC 0: 92
sET recieved LOC 1: 92
sET recieved LOC 0: 117
sET recieved LOC 1: 117
sET recieved LOC 0: 2002
sET recieved LOC 1: 2002
sET recieved LOC 0: 2027
sET recieved LOC 1: 2027
sET recieved LOC 0: 68
sET recieved LOC 1: 68
sET recieved LOC 0: 93
sET recieved LOC 1: 93
sET recieved LOC 0: 118
sET recieved LOC 1: 118
sET recieved LOC 0: 2003
sET recieved LOC 1: 2003
sET recieved LOC 0: 2028
sET recieved LOC 1: 2028
sET recieved LOC 0: 69
sET recieved LOC 1: 69
sET recieved LOC 0: 94
sET recieved LOC 1: 94
sET recieved LOC 0: 119
sET recieved LOC 1: 119
sET recieved LOC 0: 166
sET recieved LOC 1: 166
sET recieved LOC 0: 2004
sET recieved LOC 1: 2004
sET recieved LOC 0: 2029
sET recieved LOC 1: 2029
sET recieved LOC 0: 70
sET recieved LOC 1: 70
sET recieved LOC 0: 95
sET recieved LOC 1: 95
sET recieved LOC 0: 120
sET recieved LOC 1: 120
sET recieved LOC 0: 167
sET recieved LOC 1: 167
sET recieved LOC 0: 168
sET recieved LOC 1: 168
sET recieved LOC 0: 169
sET recieved LOC 1: 169
sET recieved LOC 0: 165
sET recieved LOC 1: 165
sET recieved LOC 0: 2005
sET recieved LOC 1: 2005
sET recieved LOC 0: 2030
sET recieved LOC 1: 2030
sET recieved LOC 0: 71
sET recieved LOC 1: 71
sET recieved LOC 0: 96
sET recieved LOC 1: 96
sET recieved LOC 0: 121
sET recieved LOC 1: 121
sET recieved LOC 0: 170
sET recieved LOC 1: 170
sET recieved LOC 0: 171
sET recieved LOC 1: 171
sET recieved LOC 0: 172
sET recieved LOC 1: 172
sET recieved LOC 0: 186
sET recieved LOC 1: 186
sET recieved LOC 0: 187
sET recieved LOC 1: 187
sET recieved LOC 0: 188
sET recieved LOC 1: 188
sET recieved LOC 0: 189
sET recieved LOC 1: 189
sET recieved LOC 0: 190
sET recieved LOC 1: 190
sET recieved LOC 0: 478
sET recieved LOC 1: 478
sET recieved LOC 0: 479
sET recieved LOC 1: 479
sET recieved LOC 0: 536
sET recieved LOC 1: 536
sET recieved LOC 0: 537
sET recieved LOC 1: 537
sET recieved LOC 0: 191
sET recieved LOC 1: 191
sET recieved LOC 0: 2006
sET recieved LOC 1: 2006
sET recieved LOC 0: 2031
sET recieved LOC 1: 2031
sET recieved LOC 0: 448
sET recieved LOC 1: 448
sET recieved LOC 0: 72
sET recieved LOC 1: 72
sET recieved LOC 0: 449
sET recieved LOC 1: 449
sET recieved LOC 0: 97
sET recieved LOC 1: 97
sET recieved LOC 0: 122
sET recieved LOC 1: 122
sET recieved LOC 0: 463
sET recieved LOC 1: 463
sET recieved LOC 0: 152
sET recieved LOC 1: 152
sET recieved LOC 0: 153
sET recieved LOC 1: 153
sET recieved LOC 0: 576
sET recieved LOC 1: 576
sET recieved LOC 0: 578
sET recieved LOC 1: 578
sET recieved LOC 0: 61
sET recieved LOC 1: 61
sET recieved LOC 0: 59
sET recieved LOC 1: 59
sET recieved LOC 0: 58
sET recieved LOC 1: 58
sET recieved LOC 0: 57
sET recieved LOC 1: 57
sET recieved LOC 0: 92
sET recieved LOC 1: 92
sET recieved LOC 0: 93
sET recieved LOC 1: 93
sET recieved LOC 0: 1447
sET recieved LOC 1: 1447
sET recieved LOC 0: 361
sET recieved LOC 1: 361
sET recieved LOC 0: 362
sET recieved LOC 1: 362
sET recieved LOC 0: 357
sET recieved LOC 1: 357
sET recieved LOC 0: 154
sET recieved LOC 1: 154
sET recieved LOC 0: 465
sET recieved LOC 1: 465
sET recieved LOC 0: 450
sET recieved LOC 1: 450
sET recieved LOC 0: 528
sET recieved LOC 1: 528
sET recieved LOC 0: 1882
sET recieved LOC 1: 1882
sET recieved LOC 0: 1868
sET recieved LOC 1: 1868
sET recieved LOC 0: 1883
sET recieved LOC 1: 1883
sET recieved LOC 0: 1851
sET recieved LOC 1: 1851
sET recieved LOC 0: 1987
sET recieved LOC 1: 1987
sET recieved LOC 0: 363
sET recieved LOC 1: 363
sET recieved LOC 0: 529
sET recieved LOC 1: 529
sET recieved LOC 0: 530
sET recieved LOC 1: 530
sET recieved LOC 0: 541
sET recieved LOC 1: 541
sET recieved LOC 0: 1802
sET recieved LOC 1: 1802
sET recieved LOC 0: 542
sET recieved LOC 1: 542
sET recieved LOC 0: 451
sET recieved LOC 1: 451
sET recieved LOC 0: 453
sET recieved LOC 1: 453
sET recieved LOC 0: 454
sET recieved LOC 1: 454
sET recieved LOC 0: 547
sET recieved LOC 1: 547
sET recieved LOC 0: 548
sET recieved LOC 1: 548
sET recieved LOC 0: 455
sET recieved LOC 1: 455
sET recieved LOC 0: 456
sET recieved LOC 1: 456
sET recieved LOC 0: 523
sET recieved LOC 1: 523
sET recieved LOC 0: 155
sET recieved LOC 1: 155
sET recieved LOC 0: 150
sET recieved LOC 1: 150
sET recieved LOC 0: 1894
sET recieved LOC 1: 1894
sET recieved LOC 0: 1888
sET recieved LOC 1: 1888
sET recieved LOC 0: 1916
sET recieved LOC 1: 1916
sET recieved LOC 0: 1906
sET recieved LOC 1: 1906
sET recieved LOC 0: 1907
sET recieved LOC 1: 1907
sET recieved LOC 0: 1908
sET recieved LOC 1: 1908
sET recieved LOC 0: 1847
sET recieved LOC 1: 1847
sET recieved LOC 0: 1848
sET recieved LOC 1: 1848
sET recieved LOC 0: 1849
sET recieved LOC 1: 1849
sET recieved LOC 0: 1850
sET recieved LOC 1: 1850
sET recieved LOC 0: 1909
sET recieved LOC 1: 1909
sET recieved LOC 0: 1910
sET recieved LOC 1: 1910
sET recieved LOC 0: 1911
sET recieved LOC 1: 1911
sET recieved LOC 0: 1841
sET recieved LOC 1: 1841
sET recieved LOC 0: 1842
sET recieved LOC 1: 1842
sET recieved LOC 0: 151
sET recieved LOC 1: 151
sET recieved LOC 0: 632
sET recieved LOC 1: 632
sET recieved LOC 0: 617
sET recieved LOC 1: 617
sET recieved LOC 0: 2038
sET recieved LOC 1: 2038
sET recieved LOC 0: 618
sET recieved LOC 1: 618
sET recieved LOC 0: 619
sET recieved LOC 1: 619
sET recieved LOC 0: 620
sET recieved LOC 1: 620
sET recieved LOC 0: 621
sET recieved LOC 1: 621
sET recieved LOC 0: 622
sET recieved LOC 1: 622
sET recieved LOC 0: 623
sET recieved LOC 1: 623
sET recieved LOC 0: 381
sET recieved LOC 1: 381
sET recieved LOC 0: 382
sET recieved LOC 1: 382
sET recieved LOC 0: 580
sET recieved LOC 1: 580
sET recieved LOC 0: 581
sET recieved LOC 1: 581
sET recieved LOC 0: 582
sET recieved LOC 1: 582
sET recieved LOC 0: 583
sET recieved LOC 1: 583
sET recieved LOC 0: 1833
sET recieved LOC 1: 1833
sET recieved LOC 0: 1834
sET recieved LOC 1: 1834
sET recieved LOC 0: 1838
sET recieved LOC 1: 1838
sET recieved LOC 0: 1854
sET recieved LOC 1: 1854
sET recieved LOC 0: 1835
sET recieved LOC 1: 1835
sET recieved LOC 0: 1836
sET recieved LOC 1: 1836
sET recieved LOC 0: 1853
sET recieved LOC 1: 1853
sET recieved LOC 0: 1837
sET recieved LOC 1: 1837
sET recieved LOC 0: 1845
sET recieved LOC 1: 1845
sET recieved LOC 0: 364
sET recieved LOC 1: 364
sET recieved LOC 0: 365
sET recieved LOC 1: 365
sET recieved LOC 0: 383
sET recieved LOC 1: 383
sET recieved LOC 0: 657
sET recieved LOC 1: 657
sET recieved LOC 0: 658
sET recieved LOC 1: 658
sET recieved LOC 0: 659
sET recieved LOC 1: 659
sET recieved LOC 0: 675
sET recieved LOC 1: 675
sET recieved LOC 0: 676
sET recieved LOC 1: 676
sET recieved LOC 0: 677
sET recieved LOC 1: 677
sET recieved LOC 0: 660
sET recieved LOC 1: 660
sET recieved LOC 0: 661
sET recieved LOC 1: 661
sET recieved LOC 0: 60
sET recieved LOC 1: 60
sET recieved LOC 0: 687
sET recieved LOC 1: 687
sET recieved LOC 0: 691
sET recieved LOC 1: 691
sET recieved LOC 0: 692
sET recieved LOC 1: 692
sET recieved LOC 0: 693
sET recieved LOC 1: 693
sET recieved LOC 0: 694
sET recieved LOC 1: 694
sET recieved LOC 0: 695
sET recieved LOC 1: 695
sET recieved LOC 0: 367
sET recieved LOC 1: 367
sET recieved LOC 0: 368
sET recieved LOC 1: 368
sET recieved LOC 0: 584
sET recieved LOC 1: 584
sET recieved LOC 0: 383
sET recieved LOC 1: 383
sET recieved LOC 0: 576
sET recieved LOC 1: 576
sET recieved LOC 0: 688
sET recieved LOC 1: 688
sET recieved LOC 0: 42
sET recieved LOC 1: 42
sET recieved LOC 0: 51
sET recieved LOC 1: 51
sET recieved LOC 0: 41
sET recieved LOC 1: 41
sET recieved LOC 0: 577
sET recieved LOC 1: 577
sET recieved LOC 0: 578
sET recieved LOC 1: 578
sET recieved LOC 0: 579
sET recieved LOC 1: 579
sET recieved LOC 0: 1855
sET recieved LOC 1: 1855
sET recieved LOC 0: 1839
sET recieved LOC 1: 1839
sET recieved LOC 0: 1840
sET recieved LOC 1: 1840
sET recieved LOC 0: 1843
sET recieved LOC 1: 1843
sET recieved LOC 0: 1844
sET recieved LOC 1: 1844
sET recieved LOC 0: 818
sET recieved LOC 1: 818
sET recieved LOC 0: 684
sET recieved LOC 1: 684
sET recieved LOC 0: 685
sET recieved LOC 1: 685
sET recieved LOC 0: 680
sET recieved LOC 1: 680
sET recieved LOC 0: 819
sET recieved LOC 1: 819
sET recieved LOC 0: 662
sET recieved LOC 1: 662
sET recieved LOC 0: 663
sET recieved LOC 1: 663
sET recieved LOC 0: 664
sET recieved LOC 1: 664
sET recieved LOC 0: 665
sET recieved LOC 1: 665
sET recieved LOC 0: 820
sET recieved LOC 1: 820
sET recieved LOC 0: 697
sET recieved LOC 1: 697
sET recieved LOC 0: 666
sET recieved LOC 1: 666
sET recieved LOC 0: 700
sET recieved LOC 1: 700
sET recieved LOC 0: 701
sET recieved LOC 1: 701
sET recieved LOC 0: 667
sET recieved LOC 1: 667
sET recieved LOC 0: 642
sET recieved LOC 1: 642
sET recieved LOC 0: 643
sET recieved LOC 1: 643
sET recieved LOC 0: 1972
sET recieved LOC 1: 1972
sET recieved LOC 0: 644
sET recieved LOC 1: 644
sET recieved LOC 0: 645
sET recieved LOC 1: 645
sET recieved LOC 0: 646
sET recieved LOC 1: 646
sET recieved LOC 0: 1954
sET recieved LOC 1: 1954
sET recieved LOC 0: 647
sET recieved LOC 1: 647
sET recieved LOC 0: 653
sET recieved LOC 1: 653
sET recieved LOC 0: 654
sET recieved LOC 1: 654
sET recieved LOC 0: 655
sET recieved LOC 1: 655
sET recieved LOC 0: 650
sET recieved LOC 1: 650
sET recieved LOC 0: 597
sET recieved LOC 1: 597
sET recieved LOC 0: 586
sET recieved LOC 1: 586
sET recieved LOC 0: 587
sET recieved LOC 1: 587
sET recieved LOC 0: 588
sET recieved LOC 1: 588
sET recieved LOC 0: 1973
sET recieved LOC 1: 1973
sET recieved LOC 0: 591
sET recieved LOC 1: 591
sET recieved LOC 0: 592
sET recieved LOC 1: 592
sET recieved LOC 0: 624
sET recieved LOC 1: 624
sET recieved LOC 0: 625
sET recieved LOC 1: 625
sET recieved LOC 0: 626
sET recieved LOC 1: 626
sET recieved LOC 0: 627
sET recieved LOC 1: 627
sET recieved LOC 0: 1446
sET recieved LOC 1: 1446
sET recieved LOC 0: 656
sET recieved LOC 1: 656
sET recieved LOC 0: 1445
sET recieved LOC 1: 1445
sET recieved LOC 0: 50
sET recieved LOC 1: 50
sET recieved LOC 0: 48
sET recieved LOC 1: 48
sET recieved LOC 0: 47
sET recieved LOC 1: 47
sET recieved LOC 0: 1834
sET recieved LOC 1: 1834
sET recieved LOC 0: 1835
sET recieved LOC 1: 1835
sET recieved LOC 0: 1836
sET recieved LOC 1: 1836
sET recieved LOC 0: 1837
sET recieved LOC 1: 1837
sET recieved LOC 0: 1838
sET recieved LOC 1: 1838
sET recieved LOC 0: 46
sET recieved LOC 1: 46
sET recieved LOC 0: 1985
sET recieved LOC 1: 1985
sET recieved LOC 0: 45
sET recieved LOC 1: 45
sET recieved LOC 0: 605
sET recieved LOC 1: 605
sET recieved LOC 0: 44
sET recieved LOC 1: 44
sET recieved LOC 0: 606
sET recieved LOC 1: 606
sET recieved LOC 0: 607
sET recieved LOC 1: 607
sET recieved LOC 0: 608
sET recieved LOC 1: 608
sET recieved LOC 0: 1965
sET recieved LOC 1: 1965
sET recieved LOC 0: 609
sET recieved LOC 1: 609
sET recieved LOC 0: 601
sET recieved LOC 1: 601
sET recieved LOC 0: 518
sET recieved LOC 1: 518
sET recieved LOC 0: 519
sET recieved LOC 1: 519
sET recieved LOC 0: 520
sET recieved LOC 1: 520
sET recieved LOC 0: 521
sET recieved LOC 1: 521
sET recieved LOC 0: 603
sET recieved LOC 1: 603
sET recieved LOC 0: 1955
sET recieved LOC 1: 1955
sET recieved LOC 0: 1422
sET recieved LOC 1: 1422
sET recieved LOC 0: 610
sET recieved LOC 1: 610
sET recieved LOC 0: 611
sET recieved LOC 1: 611
sET recieved LOC 0: 33
sET recieved LOC 1: 33
sET recieved LOC 0: 34
sET recieved LOC 1: 34
sET recieved LOC 0: 38
sET recieved LOC 1: 38
sET recieved LOC 0: 2037
sET recieved LOC 1: 2037
sET recieved LOC 0: 36
sET recieved LOC 1: 36
sET recieved LOC 0: 612
sET recieved LOC 1: 612
sET recieved LOC 0: 613
sET recieved LOC 1: 613
sET recieved LOC 0: 35
sET recieved LOC 1: 35
sET recieved LOC 0: 696
sET recieved LOC 1: 696
sET recieved LOC 0: 321
sET recieved LOC 1: 321
sET recieved LOC 0: 25
sET recieved LOC 1: 25
sET recieved LOC 0: 24
sET recieved LOC 1: 24
sET recieved LOC 0: 322
sET recieved LOC 1: 322
sET recieved LOC 0: 596
sET recieved LOC 1: 596
sET recieved LOC 0: 23
sET recieved LOC 1: 23
sET recieved LOC 0: 22
sET recieved LOC 1: 22
sET recieved LOC 0: 1852
sET recieved LOC 1: 1852
sET recieved LOC 0: 1818
sET recieved LOC 1: 1818
sET recieved LOC 0: 1843
sET recieved LOC 1: 1843
sET recieved LOC 0: 30
sET recieved LOC 1: 30
sET recieved LOC 0: 29
sET recieved LOC 1: 29
sET recieved LOC 0: 28
sET recieved LOC 1: 28
sET recieved LOC 0: 27
sET recieved LOC 1: 27
sET recieved LOC 0: 26
sET recieved LOC 1: 26
sET recieved LOC 0: 15
sET recieved LOC 1: 15
sET recieved LOC 0: 21
sET recieved LOC 1: 21
sET recieved LOC 0: 2035
sET recieved LOC 1: 2035
sET recieved LOC 0: 1644
sET recieved LOC 1: 1644
sET recieved LOC 0: 1853
sET recieved LOC 1: 1853
sET recieved LOC 0: 1841
sET recieved LOC 1: 1841
sET recieved LOC 0: 668
sET recieved LOC 1: 668
sET recieved LOC 0: 686
sET recieved LOC 1: 686
sET recieved LOC 0: 7
sET recieved LOC 1: 7
sET recieved LOC 0: 8
sET recieved LOC 1: 8
sET recieved LOC 0: 6
sET recieved LOC 1: 6
sET recieved LOC 0: 1977
sET recieved LOC 1: 1977
sET recieved LOC 0: 652
sET recieved LOC 1: 652
sET recieved LOC 0: 5
sET recieved LOC 1: 5
sET recieved LOC 0: 4
sET recieved LOC 1: 4
sET recieved LOC 0: 690
sET recieved LOC 1: 690
sET recieved LOC 0: 1537
sET recieved LOC 1: 1537
sET recieved LOC 0: 766
sET recieved LOC 1: 766
sET recieved LOC 0: 9
sET recieved LOC 1: 9
sET recieved LOC 0: 602
sET recieved LOC 1: 602
sET recieved LOC 0: 1971
sET recieved LOC 1: 1971
sET recieved LOC 0: 1420
sET recieved LOC 1: 1420
sET recieved LOC 0: 75
sET recieved LOC 1: 75
sET recieved LOC 0: 85
sET recieved LOC 1: 85
sET recieved LOC 0: 1382
sET recieved LOC 1: 1382
sET recieved LOC 0: 604
sET recieved LOC 1: 604
sET recieved LOC 0: 76
sET recieved LOC 1: 76
sET recieved LOC 0: 829
sET recieved LOC 1: 829
sET recieved LOC 0: 830
sET recieved LOC 1: 830
sET recieved LOC 0: 831
sET recieved LOC 1: 831
sET recieved LOC 0: 593
sET recieved LOC 1: 593
sET recieved LOC 0: 598
sET recieved LOC 1: 598
sET recieved LOC 0: 594
sET recieved LOC 1: 594
sET recieved LOC 0: 595
sET recieved LOC 1: 595
sET recieved LOC 0: 1850
sET recieved LOC 1: 1850
sET recieved LOC 0: 1851
sET recieved LOC 1: 1851
sET recieved LOC 0: 828
sET recieved LOC 1: 828
sET recieved LOC 0: 827
sET recieved LOC 1: 827
sET recieved LOC 0: 599
sET recieved LOC 1: 599
sET recieved LOC 0: 600
sET recieved LOC 1: 600
sET recieved LOC 0: 816
sET recieved LOC 1: 816
sET recieved LOC 0: 817
sET recieved LOC 1: 817
sET recieved LOC 0: 1845
sET recieved LOC 1: 1845
sET recieved LOC 0: 1825
sET recieved LOC 1: 1825
sET recieved LOC 0: 1826
sET recieved LOC 1: 1826
sET recieved LOC 0: 1827
sET recieved LOC 1: 1827
sET recieved LOC 0: 3
sET recieved LOC 1: 3
sET recieved LOC 0: 1828
sET recieved LOC 1: 1828
sET recieved LOC 0: 2
sET recieved LOC 1: 2
sET recieved LOC 0: 1829
sET recieved LOC 1: 1829
sET recieved LOC 0: 1383
sET recieved LOC 1: 1383
sET recieved LOC 0: 1
sET recieved LOC 1: 1
sET recieved LOC 0: 0
sET recieved LOC 1: 0
sET recieved LOC 0: 132
sET recieved LOC 1: 132
sET recieved LOC 0: 1384
sET recieved LOC 1: 1384
sET recieved LOC 0: 86
sET recieved LOC 1: 86
sET recieved LOC 0: 87
sET recieved LOC 1: 87
sET recieved LOC 0: 97
sET recieved LOC 1: 97
sET recieved LOC 0: 1978
sET recieved LOC 1: 1978
sET recieved LOC 0: 1385
sET recieved LOC 1: 1385
sET recieved LOC 0: 1386
sET recieved LOC 1: 1386
sET recieved LOC 0: 1387
sET recieved LOC 1: 1387
sET recieved LOC 0: 1388
sET recieved LOC 1: 1388
sET recieved LOC 0: 1389
sET recieved LOC 1: 1389
sET recieved LOC 0: 1390
sET recieved LOC 1: 1390
sET recieved LOC 0: 615
sET recieved LOC 1: 615
sET recieved LOC 0: 616
sET recieved LOC 1: 616
sET recieved LOC 0: 614
sET recieved LOC 1: 614
sET recieved LOC 0: 628
sET recieved LOC 1: 628
sET recieved LOC 0: 1893
sET recieved LOC 1: 1893
sET recieved LOC 0: 1917
sET recieved LOC 1: 1917
sET recieved LOC 0: 1815
sET recieved LOC 1: 1815
sET recieved LOC 0: 1816
sET recieved LOC 1: 1816
sET recieved LOC 0: 1817
sET recieved LOC 1: 1817
sET recieved LOC 0: 2032
sET recieved LOC 1: 2032
sET recieved LOC 0: 1900
sET recieved LOC 1: 1900
sET recieved LOC 0: 1421
sET recieved LOC 1: 1421
sET recieved LOC 0: 629
sET recieved LOC 1: 629
sET recieved LOC 0: 631
sET recieved LOC 1: 631
sET recieved LOC 0: 1904
sET recieved LOC 1: 1904
sET recieved LOC 0: 525
sET recieved LOC 1: 525
sET recieved LOC 0: 457
sET recieved LOC 1: 457
sET recieved LOC 0: 486
sET recieved LOC 1: 486
sET recieved LOC 0: 458
sET recieved LOC 1: 458
sET recieved LOC 0: 459
sET recieved LOC 1: 459
sET recieved LOC 0: 568
sET recieved LOC 1: 568
sET recieved LOC 0: 569
sET recieved LOC 1: 569
sET recieved LOC 0: 460
sET recieved LOC 1: 460
sET recieved LOC 0: 461
sET recieved LOC 1: 461
sET recieved LOC 0: 462
sET recieved LOC 1: 462
sET recieved LOC 0: 481
sET recieved LOC 1: 481
sET recieved LOC 0: 482
sET recieved LOC 1: 482
sET recieved LOC 0: 483
sET recieved LOC 1: 483
sET recieved LOC 0: 469
sET recieved LOC 1: 469
sET recieved LOC 0: 470
sET recieved LOC 1: 470
sET recieved LOC 0: 505
sET recieved LOC 1: 505
sET recieved LOC 0: 506
sET recieved LOC 1: 506
sET recieved LOC 0: 507
sET recieved LOC 1: 507
sET recieved LOC 0: 543
sET recieved LOC 1: 543
sET recieved LOC 0: 471
sET recieved LOC 1: 471
sET recieved LOC 0: 526
sET recieved LOC 1: 526
sET recieved LOC 0: 527
sET recieved LOC 1: 527
sET recieved LOC 0: 1839
sET recieved LOC 1: 1839
sET recieved LOC 0: 1840
sET recieved LOC 1: 1840
sET recieved LOC 0: 767
sET recieved LOC 1: 767
sET recieved LOC 0: 531
sET recieved LOC 1: 531
sET recieved LOC 0: 890
sET recieved LOC 1: 890
sET recieved LOC 0: 891
sET recieved LOC 1: 891
sET recieved LOC 0: 452
sET recieved LOC 1: 452
sET recieved LOC 0: 508
sET recieved LOC 1: 508
sET recieved LOC 0: 521
sET recieved LOC 1: 521
sET recieved LOC 0: 678
sET recieved LOC 1: 678
sET recieved LOC 0: 679
sET recieved LOC 1: 679
sET recieved LOC 0: 669
sET recieved LOC 1: 669
sET recieved LOC 0: 1807
sET recieved LOC 1: 1807
sET recieved LOC 0: 1808
sET recieved LOC 1: 1808
sET recieved LOC 0: 2040
sET recieved LOC 1: 2040
sET recieved LOC 0: 522
sET recieved LOC 1: 522
sET recieved LOC 0: 489
sET recieved LOC 1: 489
sET recieved LOC 0: 466
sET recieved LOC 1: 466
sET recieved LOC 0: 495
sET recieved LOC 1: 495
sET recieved LOC 0: 183
sET recieved LOC 1: 183
sET recieved LOC 0: 184
sET recieved LOC 1: 184
sET recieved LOC 0: 123
sET recieved LOC 1: 123
sET recieved LOC 0: 496
sET recieved LOC 1: 496
sET recieved LOC 0: 497
sET recieved LOC 1: 497
sET recieved LOC 0: 1803
sET recieved LOC 1: 1803
sET recieved LOC 0: 1804
sET recieved LOC 1: 1804
sET recieved LOC 0: 147
sET recieved LOC 1: 147
sET recieved LOC 0: 148
sET recieved LOC 1: 148
sET recieved LOC 0: 149
sET recieved LOC 1: 149
sET recieved LOC 0: 1805
sET recieved LOC 1: 1805
sET recieved LOC 0: 1806
sET recieved LOC 1: 1806
sET recieved LOC 0: 1807
sET recieved LOC 1: 1807
sET recieved LOC 0: 498
sET recieved LOC 1: 498
sET recieved LOC 0: 320
sET recieved LOC 1: 320
sET recieved LOC 0: 500
sET recieved LOC 1: 500
sET recieved LOC 0: 501
sET recieved LOC 1: 501
sET recieved LOC 0: 502
sET recieved LOC 1: 502
sET recieved LOC 0: 2043
sET recieved LOC 1: 2043
sET recieved LOC 0: 900
sET recieved LOC 1: 900
sET recieved LOC 0: 58
sET recieved LOC 1: 58
sET recieved LOC 0: 1216
sET recieved LOC 1: 1216
sET recieved LOC 0: 1842
sET recieved LOC 1: 1842
sET recieved LOC 0: 681
sET recieved LOC 1: 681
sET recieved LOC 0: 49
sET recieved LOC 1: 49
sET recieved LOC 0: 2035
sET recieved LOC 1: 2035
sET recieved LOC 0: 2040
sET recieved LOC 1: 2040
sET recieved LOC 0: 570
sET recieved LOC 1: 570
sET recieved LOC 0: 356
sET recieved LOC 1: 356
sET recieved LOC 0: 877
sET recieved LOC 1: 877
sET recieved LOC 0: 878
sET recieved LOC 1: 878
sET recieved LOC 0: 822
sET recieved LOC 1: 822
sET recieved LOC 0: 821
sET recieved LOC 1: 821
sET recieved LOC 0: 820
sET recieved LOC 1: 820
sET recieved LOC 0: 819
sET recieved LOC 1: 819
sET recieved LOC 0: 826
sET recieved LOC 1: 826
sET recieved LOC 0: 825
sET recieved LOC 1: 825
sET recieved LOC 0: 824
sET recieved LOC 1: 824
sET recieved LOC 0: 823
sET recieved LOC 1: 823
sET recieved LOC 0: 812
sET recieved LOC 1: 812
sET recieved LOC 0: 813
sET recieved LOC 1: 813
sET recieved LOC 0: 814
sET recieved LOC 1: 814
sET recieved LOC 0: 811
sET recieved LOC 1: 811
sET recieved LOC 0: 810
sET recieved LOC 1: 810
sET recieved LOC 0: 818
sET recieved LOC 1: 818
sET recieved LOC 0: 817
sET recieved LOC 1: 817
sET recieved LOC 0: 1538
sET recieved LOC 1: 1538
sET recieved LOC 0: 816
sET recieved LOC 1: 816
sET recieved LOC 0: 815
sET recieved LOC 1: 815
sET recieved LOC 0: 1391
sET recieved LOC 1: 1391
sET recieved LOC 0: 1392
sET recieved LOC 1: 1392
sET recieved LOC 0: 1393
sET recieved LOC 1: 1393
sET recieved LOC 0: 1854
sET recieved LOC 1: 1854
sET recieved LOC 0: 1988
sET recieved LOC 1: 1988
sET recieved LOC 0: 475
sET recieved LOC 1: 475
sET recieved LOC 0: 476
sET recieved LOC 1: 476
sET recieved LOC 0: 530
sET recieved LOC 1: 530
sET recieved LOC 0: 531
sET recieved LOC 1: 531
sET recieved LOC 0: 477
sET recieved LOC 1: 477
sET recieved LOC 0: 499
sET recieved LOC 1: 499
sET recieved LOC 0: 538
sET recieved LOC 1: 538
sET recieved LOC 0: 539
sET recieved LOC 1: 539
sET recieved LOC 0: 1811
sET recieved LOC 1: 1811
sET recieved LOC 0: 1812
sET recieved LOC 1: 1812
sET recieved LOC 0: 1813
sET recieved LOC 1: 1813
sET recieved LOC 0: 464
sET recieved LOC 1: 464
sET recieved LOC 0: 881
sET recieved LOC 1: 881
sET recieved LOC 0: 487
sET recieved LOC 1: 487
sET recieved LOC 0: 488
sET recieved LOC 1: 488
sET recieved LOC 0: 467
sET recieved LOC 1: 467
sET recieved LOC 0: 517
sET recieved LOC 1: 517
sET recieved LOC 0: 518
sET recieved LOC 1: 518
sET recieved LOC 0: 156
sET recieved LOC 1: 156
sET recieved LOC 0: 157
sET recieved LOC 1: 157
sET recieved LOC 0: 158
sET recieved LOC 1: 158
sET recieved LOC 0: 159
sET recieved LOC 1: 159
sET recieved LOC 0: 160
sET recieved LOC 1: 160
sET recieved LOC 0: 611
sET recieved LOC 1: 611
sET recieved LOC 0: 323
sET recieved LOC 1: 323
sET recieved LOC 0: 324
sET recieved LOC 1: 324
sET recieved LOC 0: 346
sET recieved LOC 1: 346
sET recieved LOC 0: 670
sET recieved LOC 1: 670
sET recieved LOC 0: 671
sET recieved LOC 1: 671
sET recieved LOC 0: 672
sET recieved LOC 1: 672
sET recieved LOC 0: 674
sET recieved LOC 1: 674
sET recieved LOC 0: 673
sET recieved LOC 1: 673
sET recieved LOC 0: 330
sET recieved LOC 1: 330
sET recieved LOC 0: 1849
sET recieved LOC 1: 1849
sET recieved LOC 0: 32
sET recieved LOC 1: 32
sET recieved LOC 0: 1858
sET recieved LOC 1: 1858
sET recieved LOC 0: 1859
sET recieved LOC 1: 1859
sET recieved LOC 0: 1860
sET recieved LOC 1: 1860
sET recieved LOC 0: 1861
sET recieved LOC 1: 1861
sET recieved LOC 0: 1862
sET recieved LOC 1: 1862
sET recieved LOC 0: 1821
sET recieved LOC 1: 1821
sET recieved LOC 0: 1822
sET recieved LOC 1: 1822
sET recieved LOC 0: 1823
sET recieved LOC 1: 1823
sET recieved LOC 0: 1824
sET recieved LOC 1: 1824
sET recieved LOC 0: 1825
sET recieved LOC 1: 1825
sET recieved LOC 0: 1826
sET recieved LOC 1: 1826
sET recieved LOC 0: 1827
sET recieved LOC 1: 1827
sET recieved LOC 0: 1828
sET recieved LOC 1: 1828
sET recieved LOC 0: 1991
sET recieved LOC 1: 1991
sET recieved LOC 0: 698
sET recieved LOC 1: 698
sET recieved LOC 0: 699
sET recieved LOC 1: 699
sET recieved LOC 0: 689
sET recieved LOC 1: 689
sET recieved LOC 0: 320
sET recieved LOC 1: 320
sET recieved LOC 0: 369
sET recieved LOC 1: 369
sET recieved LOC 0: 381
sET recieved LOC 1: 381
sET recieved LOC 0: 382
sET recieved LOC 1: 382
sET recieved LOC 0: 370
sET recieved LOC 1: 370
sET recieved LOC 0: 373
sET recieved LOC 1: 373
sET recieved LOC 0: 374
sET recieved LOC 1: 374
sET recieved LOC 0: 375
sET recieved LOC 1: 375
sET recieved LOC 0: 371
sET recieved LOC 1: 371
sET recieved LOC 0: 376
sET recieved LOC 1: 376
sET recieved LOC 0: 377
sET recieved LOC 1: 377
sET recieved LOC 0: 1453
sET recieved LOC 1: 1453
sET recieved LOC 0: 1830
sET recieved LOC 1: 1830
sET recieved LOC 0: 1831
sET recieved LOC 1: 1831
sET recieved LOC 0: 1832
sET recieved LOC 1: 1832
sET recieved LOC 0: 2041
sET recieved LOC 1: 2041
sET recieved LOC 0: 33
sET recieved LOC 1: 33
sET recieved LOC 0: 1979
sET recieved LOC 1: 1979
sET recieved LOC 0: 884
sET recieved LOC 1: 884
sET recieved LOC 0: 885
sET recieved LOC 1: 885
sET recieved LOC 0: 544
sET recieved LOC 1: 544
sET recieved LOC 0: 173
sET recieved LOC 1: 173
sET recieved LOC 0: 174
sET recieved LOC 1: 174
sET recieved LOC 0: 178
sET recieved LOC 1: 178
sET recieved LOC 0: 179
sET recieved LOC 1: 179
sET recieved LOC 0: 180
sET recieved LOC 1: 180
sET recieved LOC 0: 514
sET recieved LOC 1: 514
sET recieved LOC 0: 515
sET recieved LOC 1: 515
sET recieved LOC 0: 516
sET recieved LOC 1: 516
sET recieved LOC 0: 176
sET recieved LOC 1: 176
sET recieved LOC 0: 175
sET recieved LOC 1: 175
sET recieved LOC 0: 181
sET recieved LOC 1: 181
sET recieved LOC 0: 182
sET recieved LOC 1: 182
sET recieved LOC 0: 253
sET recieved LOC 1: 253
sET recieved LOC 0: 616
sET recieved LOC 1: 616
sET recieved LOC 0: 257
sET recieved LOC 1: 257
sET recieved LOC 0: 282
sET recieved LOC 1: 282
sET recieved LOC 0: 307
sET recieved LOC 1: 307
sET recieved LOC 0: 204
sET recieved LOC 1: 204
sET recieved LOC 0: 617
sET recieved LOC 1: 617
sET recieved LOC 0: 258
sET recieved LOC 1: 258
sET recieved LOC 0: 283
sET recieved LOC 1: 283
sET recieved LOC 0: 308
sET recieved LOC 1: 308
sET recieved LOC 0: 205
sET recieved LOC 1: 205
sET recieved LOC 0: 618
sET recieved LOC 1: 618
sET recieved LOC 0: 309
sET recieved LOC 1: 309
sET recieved LOC 0: 206
sET recieved LOC 1: 206
sET recieved LOC 0: 619
sET recieved LOC 1: 619
sET recieved LOC 0: 310
sET recieved LOC 1: 310
sET recieved LOC 0: 207
sET recieved LOC 1: 207
sET recieved LOC 0: 311
sET recieved LOC 1: 311
sET recieved LOC 0: 208
sET recieved LOC 1: 208
sET recieved LOC 0: 312
sET recieved LOC 1: 312
sET recieved LOC 0: 209
sET recieved LOC 1: 209
sET recieved LOC 0: 622
sET recieved LOC 1: 622
sET recieved LOC 0: 210
sET recieved LOC 1: 210
sET recieved LOC 0: 623
sET recieved LOC 1: 623
sET recieved LOC 0: 211
sET recieved LOC 1: 211
sET recieved LOC 0: 212
sET recieved LOC 1: 212
sET recieved LOC 0: 625
sET recieved LOC 1: 625
sET recieved LOC 0: 626
sET recieved LOC 1: 626
sET recieved LOC 0: 267
sET recieved LOC 1: 267
sET recieved LOC 0: 292
sET recieved LOC 1: 292
sET recieved LOC 0: 317
sET recieved LOC 1: 317
sET recieved LOC 0: 214
sET recieved LOC 1: 214
sET recieved LOC 0: 627
sET recieved LOC 1: 627
sET recieved LOC 0: 268
sET recieved LOC 1: 268
sET recieved LOC 0: 293
sET recieved LOC 1: 293
sET recieved LOC 0: 318
sET recieved LOC 1: 318
sET recieved LOC 0: 215
sET recieved LOC 1: 215
sET recieved LOC 0: 628
sET recieved LOC 1: 628
sET recieved LOC 0: 269
sET recieved LOC 1: 269
sET recieved LOC 0: 294
sET recieved LOC 1: 294
sET recieved LOC 0: 319
sET recieved LOC 1: 319
sET recieved LOC 0: 216
sET recieved LOC 1: 216
sET recieved LOC 0: 629
sET recieved LOC 1: 629
sET recieved LOC 0: 270
sET recieved LOC 1: 270
sET recieved LOC 0: 295
sET recieved LOC 1: 295
sET recieved LOC 0: 192
sET recieved LOC 1: 192
sET recieved LOC 0: 217
sET recieved LOC 1: 217
sET recieved LOC 0: 630
sET recieved LOC 1: 630
sET recieved LOC 0: 271
sET recieved LOC 1: 271
sET recieved LOC 0: 296
sET recieved LOC 1: 296
sET recieved LOC 0: 193
sET recieved LOC 1: 193
sET recieved LOC 0: 218
sET recieved LOC 1: 218
sET recieved LOC 0: 631
sET recieved LOC 1: 631
sET recieved LOC 0: 272
sET recieved LOC 1: 272
sET recieved LOC 0: 297
sET recieved LOC 1: 297
sET recieved LOC 0: 194
sET recieved LOC 1: 194
sET recieved LOC 0: 219
sET recieved LOC 1: 219
sET recieved LOC 0: 632
sET recieved LOC 1: 632
sET recieved LOC 0: 273
sET recieved LOC 1: 273
sET recieved LOC 0: 298
sET recieved LOC 1: 298
sET recieved LOC 0: 195
sET recieved LOC 1: 195
sET recieved LOC 0: 220
sET recieved LOC 1: 220
sET recieved LOC 0: 274
sET recieved LOC 1: 274
sET recieved LOC 0: 299
sET recieved LOC 1: 299
sET recieved LOC 0: 196
sET recieved LOC 1: 196
sET recieved LOC 0: 221
sET recieved LOC 1: 221
sET recieved LOC 0: 275
sET recieved LOC 1: 275
sET recieved LOC 0: 300
sET recieved LOC 1: 300
sET recieved LOC 0: 197
sET recieved LOC 1: 197
sET recieved LOC 0: 222
sET recieved LOC 1: 222
sET recieved LOC 0: 276
sET recieved LOC 1: 276
sET recieved LOC 0: 301
sET recieved LOC 1: 301
sET recieved LOC 0: 198
sET recieved LOC 1: 198
sET recieved LOC 0: 223
sET recieved LOC 1: 223
sET recieved LOC 0: 277
sET recieved LOC 1: 277
sET recieved LOC 0: 302
sET recieved LOC 1: 302
sET recieved LOC 0: 199
sET recieved LOC 1: 199
sET recieved LOC 0: 224
sET recieved LOC 1: 224
sET recieved LOC 0: 278
sET recieved LOC 1: 278
sET recieved LOC 0: 303
sET recieved LOC 1: 303
sET recieved LOC 0: 200
sET recieved LOC 1: 200
sET recieved LOC 0: 225
sET recieved LOC 1: 225
sET recieved LOC 0: 279
sET recieved LOC 1: 279
sET recieved LOC 0: 304
sET recieved LOC 1: 304
sET recieved LOC 0: 201
sET recieved LOC 1: 201
sET recieved LOC 0: 226
sET recieved LOC 1: 226
sET recieved LOC 0: 280
sET recieved LOC 1: 280
sET recieved LOC 0: 305
sET recieved LOC 1: 305
sET recieved LOC 0: 202
sET recieved LOC 1: 202
sET recieved LOC 0: 227
sET recieved LOC 1: 227
sET recieved LOC 0: 281
sET recieved LOC 1: 281
sET recieved LOC 0: 306
sET recieved LOC 1: 306
sET recieved LOC 0: 203
sET recieved LOC 1: 203
sET recieved LOC 0: 228
sET recieved LOC 1: 228
sET recieved LOC 0: 1980
sET recieved LOC 1: 1980
sET recieved LOC 0: 947
sET recieved LOC 1: 947
sET recieved LOC 0: 1870
sET recieved LOC 1: 1870
sET recieved LOC 0: 960
sET recieved LOC 1: 960
sET recieved LOC 0: 958
sET recieved LOC 1: 958
sET recieved LOC 0: 1429
sET recieved LOC 1: 1429
sET recieved LOC 0: 1428
sET recieved LOC 1: 1428
sET recieved LOC 0: 948
sET recieved LOC 1: 948
sET recieved LOC 0: 1998
sET recieved LOC 1: 1998
sET recieved LOC 0: 912
sET recieved LOC 1: 912
sET recieved LOC 0: 923
sET recieved LOC 1: 923
sET recieved LOC 0: 913
sET recieved LOC 1: 913
sET recieved LOC 0: 1995
sET recieved LOC 1: 1995
sET recieved LOC 0: 2045
sET recieved LOC 1: 2045
sET recieved LOC 0: 1455
sET recieved LOC 1: 1455
sET recieved LOC 0: 914
sET recieved LOC 1: 914
sET recieved LOC 0: 935
sET recieved LOC 1: 935
sET recieved LOC 0: 924
sET recieved LOC 1: 924
sET recieved LOC 0: 925
sET recieved LOC 1: 925
sET recieved LOC 0: 660
sET recieved LOC 1: 660
sET recieved LOC 0: 1456
sET recieved LOC 1: 1456
sET recieved LOC 0: 2000
sET recieved LOC 1: 2000
sET recieved LOC 0: 1802
sET recieved LOC 1: 1802
sET recieved LOC 0: 1803
sET recieved LOC 1: 1803
sET recieved LOC 0: 1804
sET recieved LOC 1: 1804
sET recieved LOC 0: 962
sET recieved LOC 1: 962
sET recieved LOC 0: 1996
sET recieved LOC 1: 1996
sET recieved LOC 0: 509
sET recieved LOC 1: 509
sET recieved LOC 0: 484
sET recieved LOC 1: 484
sET recieved LOC 0: 834
sET recieved LOC 1: 834
sET recieved LOC 0: 835
sET recieved LOC 1: 835
sET recieved LOC 0: 836
sET recieved LOC 1: 836
sET recieved LOC 0: 837
sET recieved LOC 1: 837
sET recieved LOC 0: 2046
sET recieved LOC 1: 2046
sET recieved LOC 0: 229
sET recieved LOC 1: 229
sET recieved LOC 0: 1982
sET recieved LOC 1: 1982
sET recieved LOC 0: 1034
sET recieved LOC 1: 1034
sET recieved LOC 0: 1046
sET recieved LOC 1: 1046
sET recieved LOC 0: 1035
sET recieved LOC 1: 1035
sET recieved LOC 0: 1036
sET recieved LOC 1: 1036
sET recieved LOC 0: 963
sET recieved LOC 1: 963
sET recieved LOC 0: 1430
sET recieved LOC 1: 1430
sET recieved LOC 0: 1981
sET recieved LOC 1: 1981
sET recieved LOC 0: 2001
sET recieved LOC 1: 2001
sET recieved LOC 0: 485
sET recieved LOC 1: 485
sET recieved LOC 0: 1848
sET recieved LOC 1: 1848
sET recieved LOC 0: 1849
sET recieved LOC 1: 1849
sET recieved LOC 0: 615
sET recieved LOC 1: 615
sET recieved LOC 0: 53
sET recieved LOC 1: 53
sET recieved LOC 0: 344
sET recieved LOC 1: 344
sET recieved LOC 0: 346
sET recieved LOC 1: 346
sET recieved LOC 0: 347
sET recieved LOC 1: 347
sET recieved LOC 0: 348
sET recieved LOC 1: 348
sET recieved LOC 0: 46
sET recieved LOC 1: 46
sET recieved LOC 0: 44
sET recieved LOC 1: 44
sET recieved LOC 0: 43
sET recieved LOC 1: 43
sET recieved LOC 0: 345
sET recieved LOC 1: 345
sET recieved LOC 0: 1774
sET recieved LOC 1: 1774
sET recieved LOC 0: 1775
sET recieved LOC 1: 1775
sET recieved LOC 0: 1776
sET recieved LOC 1: 1776
sET recieved LOC 0: 1780
sET recieved LOC 1: 1780
sET recieved LOC 0: 1778
sET recieved LOC 1: 1778
sET recieved LOC 0: 1781
sET recieved LOC 1: 1781
sET recieved LOC 0: 1782
sET recieved LOC 1: 1782
sET recieved LOC 0: 189
sET recieved LOC 1: 189
sET recieved LOC 0: 190
sET recieved LOC 1: 190
sET recieved LOC 0: 452
sET recieved LOC 1: 452
sET recieved LOC 0: 453
sET recieved LOC 1: 453
sET recieved LOC 0: 1784
sET recieved LOC 1: 1784
sET recieved LOC 0: 1785
sET recieved LOC 1: 1785
sET recieved LOC 0: 548
sET recieved LOC 1: 548
sET recieved LOC 0: 549
sET recieved LOC 1: 549
sET recieved LOC 0: 550
sET recieved LOC 1: 550
sET recieved LOC 0: 551
sET recieved LOC 1: 551
sET recieved LOC 0: 552
sET recieved LOC 1: 552
sET recieved LOC 0: 553
sET recieved LOC 1: 553
sET recieved LOC 0: 555
sET recieved LOC 1: 555
sET recieved LOC 0: 554
sET recieved LOC 1: 554
sET recieved LOC 0: 558
sET recieved LOC 1: 558
sET recieved LOC 0: 559
sET recieved LOC 1: 559
sET recieved LOC 0: 17
sET recieved LOC 1: 17
sET recieved LOC 0: 16
sET recieved LOC 1: 16
sET recieved LOC 0: 15
sET recieved LOC 1: 15
sET recieved LOC 0: 560
sET recieved LOC 1: 560
sET recieved LOC 0: 1787
sET recieved LOC 1: 1787
sET recieved LOC 0: 522
sET recieved LOC 1: 522
sET recieved LOC 0: 523
sET recieved LOC 1: 523
sET recieved LOC 0: 14
sET recieved LOC 1: 14
sET recieved LOC 0: 1788
sET recieved LOC 1: 1788
sET recieved LOC 0: 1243
sET recieved LOC 1: 1243
sET recieved LOC 0: 1244
sET recieved LOC 1: 1244
sET recieved LOC 0: 1245
sET recieved LOC 1: 1245
sET recieved LOC 0: 1246
sET recieved LOC 1: 1246
sET recieved LOC 0: 1247
sET recieved LOC 1: 1247
sET recieved LOC 0: 1091
sET recieved LOC 1: 1091
sET recieved LOC 0: 257
sET recieved LOC 1: 257
sET recieved LOC 0: 1248
sET recieved LOC 1: 1248
sET recieved LOC 0: 258
sET recieved LOC 1: 258
sET recieved LOC 0: 1789
sET recieved LOC 1: 1789
sET recieved LOC 0: 759
sET recieved LOC 1: 759
sET recieved LOC 0: 760
sET recieved LOC 1: 760
sET recieved LOC 0: 761
sET recieved LOC 1: 761
sET recieved LOC 0: 814
sET recieved LOC 1: 814
sET recieved LOC 0: 815
sET recieved LOC 1: 815
sET recieved LOC 0: 789
sET recieved LOC 1: 789
sET recieved LOC 0: 790
sET recieved LOC 1: 790
sET recieved LOC 0: 791
sET recieved LOC 1: 791
sET recieved LOC 0: 792
sET recieved LOC 1: 792
sET recieved LOC 0: 40
sET recieved LOC 1: 40
sET recieved LOC 0: 13
sET recieved LOC 1: 13
sET recieved LOC 0: 409
sET recieved LOC 1: 409
sET recieved LOC 0: 417
sET recieved LOC 1: 417
sET recieved LOC 0: 981
sET recieved LOC 1: 981
sET recieved LOC 0: 996
sET recieved LOC 1: 996
sET recieved LOC 0: 1048
sET recieved LOC 1: 1048
sET recieved LOC 0: 1100
sET recieved LOC 1: 1100
sET recieved LOC 0: 1115
sET recieved LOC 1: 1115
sET recieved LOC 0: 1167
sET recieved LOC 1: 1167
sET recieved LOC 0: 1219
sET recieved LOC 1: 1219
sET recieved LOC 0: 1234
sET recieved LOC 1: 1234
sET recieved LOC 0: 793
sET recieved LOC 1: 793
sET recieved LOC 0: 1286
sET recieved LOC 1: 1286
sET recieved LOC 0: 1164
sET recieved LOC 1: 1164
sET recieved LOC 0: 1165
sET recieved LOC 1: 1165
sET recieved LOC 0: 1338
sET recieved LOC 1: 1338
sET recieved LOC 0: 1353
sET recieved LOC 1: 1353
sET recieved LOC 0: 1405
sET recieved LOC 1: 1405
sET recieved LOC 0: 1457
sET recieved LOC 1: 1457
sET recieved LOC 0: 1472
sET recieved LOC 1: 1472
sET recieved LOC 0: 1487
sET recieved LOC 1: 1487
sET recieved LOC 0: 1489
sET recieved LOC 1: 1489
sET recieved LOC 0: 1488
sET recieved LOC 1: 1488
sET recieved LOC 0: 1524
sET recieved LOC 1: 1524
sET recieved LOC 0: 1640
sET recieved LOC 1: 1640
sET recieved LOC 0: 1655
sET recieved LOC 1: 1655
sET recieved LOC 0: 794
sET recieved LOC 1: 794
sET recieved LOC 0: 818
sET recieved LOC 1: 818
sET recieved LOC 0: 819
sET recieved LOC 1: 819
sET recieved LOC 0: 762
sET recieved LOC 1: 762
sET recieved LOC 0: 508
sET recieved LOC 1: 508
sET recieved LOC 0: 509
sET recieved LOC 1: 509
sET recieved LOC 0: 200
sET recieved LOC 1: 200
sET recieved LOC 0: 1707
sET recieved LOC 1: 1707
sET recieved LOC 0: 195
sET recieved LOC 1: 195
sET recieved LOC 0: 202
sET recieved LOC 1: 202
sET recieved LOC 0: 656
sET recieved LOC 1: 656
sET recieved LOC 0: 657
sET recieved LOC 1: 657
sET recieved LOC 0: 659
sET recieved LOC 1: 659
sET recieved LOC 0: 660
sET recieved LOC 1: 660
sET recieved LOC 0: 1867
sET recieved LOC 1: 1867
sET recieved LOC 0: 664
sET recieved LOC 1: 664
sET recieved LOC 0: 1871
sET recieved LOC 1: 1871
sET recieved LOC 0: 665
sET recieved LOC 1: 665
sET recieved LOC 0: 1872
sET recieved LOC 1: 1872
sET recieved LOC 0: 1873
sET recieved LOC 1: 1873
sET recieved LOC 0: 666
sET recieved LOC 1: 666
sET recieved LOC 0: 668
sET recieved LOC 1: 668
sET recieved LOC 0: 669
sET recieved LOC 1: 669
sET recieved LOC 0: 688
sET recieved LOC 1: 688
sET recieved LOC 0: 689
sET recieved LOC 1: 689
sET recieved LOC 0: 670
sET recieved LOC 1: 670
sET recieved LOC 0: 671
sET recieved LOC 1: 671
sET recieved LOC 0: 672
sET recieved LOC 1: 672
sET recieved LOC 0: 673
sET recieved LOC 1: 673
sET recieved LOC 0: 674
sET recieved LOC 1: 674
sET recieved LOC 0: 364
sET recieved LOC 1: 364
sET recieved LOC 0: 365
sET recieved LOC 1: 365
sET recieved LOC 0: 366
sET recieved LOC 1: 366
sET recieved LOC 0: 675
sET recieved LOC 1: 675
sET recieved LOC 0: 677
sET recieved LOC 1: 677
sET recieved LOC 0: 678
sET recieved LOC 1: 678
sET recieved LOC 0: 679
sET recieved LOC 1: 679
sET recieved LOC 0: 676
sET recieved LOC 1: 676
sET recieved LOC 0: 303
sET recieved LOC 1: 303
sET recieved LOC 0: 239
sET recieved LOC 1: 239
sET recieved LOC 0: 240
sET recieved LOC 1: 240
sET recieved LOC 0: 241
sET recieved LOC 1: 241
sET recieved LOC 0: 242
sET recieved LOC 1: 242
sET recieved LOC 0: 243
sET recieved LOC 1: 243
sET recieved LOC 0: 244
sET recieved LOC 1: 244
sET recieved LOC 0: 245
sET recieved LOC 1: 245
sET recieved LOC 0: 246
sET recieved LOC 1: 246
sET recieved LOC 0: 1217
sET recieved LOC 1: 1217
sET recieved LOC 0: 1218
sET recieved LOC 1: 1218
sET recieved LOC 0: 1338
sET recieved LOC 1: 1338
sET recieved LOC 0: 1199
sET recieved LOC 1: 1199
sET recieved LOC 0: 247
sET recieved LOC 1: 247
sET recieved LOC 0: 249
sET recieved LOC 1: 249
sET recieved LOC 0: 250
sET recieved LOC 1: 250
sET recieved LOC 0: 248
sET recieved LOC 1: 248
sET recieved LOC 0: 1349
sET recieved LOC 1: 1349
sET recieved LOC 0: 252
sET recieved LOC 1: 252
sET recieved LOC 0: 250
sET recieved LOC 1: 250
sET recieved LOC 0: 251
sET recieved LOC 1: 251
sET recieved LOC 0: 249
sET recieved LOC 1: 249
sET recieved LOC 0: 248
sET recieved LOC 1: 248
sET recieved LOC 0: 201
sET recieved LOC 1: 201
sET recieved LOC 0: 680
sET recieved LOC 1: 680
sET recieved LOC 0: 681
sET recieved LOC 1: 681
sET recieved LOC 0: 725
sET recieved LOC 1: 725
sET recieved LOC 0: 699
sET recieved LOC 1: 699
sET recieved LOC 0: 1432
sET recieved LOC 1: 1432
sET recieved LOC 0: 1519
sET recieved LOC 1: 1519
sET recieved LOC 0: 196
sET recieved LOC 1: 196
sET recieved LOC 0: 197
sET recieved LOC 1: 197
sET recieved LOC 0: 1536
sET recieved LOC 1: 1536
sET recieved LOC 0: 198
sET recieved LOC 1: 198
sET recieved LOC 0: 242
sET recieved LOC 1: 242
sET recieved LOC 0: 241
sET recieved LOC 1: 241
sET recieved LOC 0: 240
sET recieved LOC 1: 240
sET recieved LOC 0: 239
sET recieved LOC 1: 239
sET recieved LOC 0: 252
sET recieved LOC 1: 252
sET recieved LOC 0: 254
sET recieved LOC 1: 254
sET recieved LOC 0: 255
sET recieved LOC 1: 255
sET recieved LOC 0: 253
sET recieved LOC 1: 253
sET recieved LOC 0: 199
sET recieved LOC 1: 199
sET recieved LOC 0: 205
sET recieved LOC 1: 205
sET recieved LOC 0: 206
sET recieved LOC 1: 206
sET recieved LOC 0: 763
sET recieved LOC 1: 763
sET recieved LOC 0: 1786
sET recieved LOC 1: 1786
sET recieved LOC 0: 1777
sET recieved LOC 1: 1777
sET recieved LOC 0: 350
sET recieved LOC 1: 350
sET recieved LOC 0: 352
sET recieved LOC 1: 352
sET recieved LOC 0: 353
sET recieved LOC 1: 353
sET recieved LOC 0: 332
sET recieved LOC 1: 332
sET recieved LOC 0: 327
sET recieved LOC 1: 327
sET recieved LOC 0: 240
sET recieved LOC 1: 240
sET recieved LOC 0: 837
sET recieved LOC 1: 837
sET recieved LOC 0: 1355
sET recieved LOC 1: 1355
sET recieved LOC 0: 241
sET recieved LOC 1: 241
sET recieved LOC 0: 1354
sET recieved LOC 1: 1354
sET recieved LOC 0: 242
sET recieved LOC 1: 242
sET recieved LOC 0: 1609
sET recieved LOC 1: 1609
sET recieved LOC 0: 238
sET recieved LOC 1: 238
sET recieved LOC 0: 235
sET recieved LOC 1: 235
sET recieved LOC 0: 234
sET recieved LOC 1: 234
sET recieved LOC 0: 233
sET recieved LOC 1: 233
sET recieved LOC 0: 232
sET recieved LOC 1: 232
sET recieved LOC 0: 1670
sET recieved LOC 1: 1670
sET recieved LOC 0: 259
sET recieved LOC 1: 259
sET recieved LOC 0: 229
sET recieved LOC 1: 229
sET recieved LOC 0: 603
sET recieved LOC 1: 603
sET recieved LOC 0: 604
sET recieved LOC 1: 604
sET recieved LOC 0: 124
sET recieved LOC 1: 124
sET recieved LOC 0: 125
sET recieved LOC 1: 125
sET recieved LOC 0: 126
sET recieved LOC 1: 126
sET recieved LOC 0: 127
sET recieved LOC 1: 127
sET recieved LOC 0: 0
sET recieved LOC 1: 0
sET recieved LOC 0: 1
sET recieved LOC 1: 1
sET recieved LOC 0: 2
sET recieved LOC 1: 2
sET recieved LOC 0: 3
sET recieved LOC 1: 3
sET recieved LOC 0: 5
sET recieved LOC 1: 5
sET recieved LOC 0: 6
sET recieved LOC 1: 6
sET recieved LOC 0: 7
sET recieved LOC 1: 7
sET recieved LOC 0: 8
sET recieved LOC 1: 8
sET recieved LOC 0: 9
sET recieved LOC 1: 9
sET recieved LOC 0: 10
sET recieved LOC 1: 10
sET recieved LOC 0: 11
sET recieved LOC 1: 11
sET recieved LOC 0: 12
sET recieved LOC 1: 12
sET recieved LOC 0: 18
sET recieved LOC 1: 18
sET recieved LOC 0: 602
sET recieved LOC 1: 602
sET recieved LOC 0: 601
sET recieved LOC 1: 601
sET recieved LOC 0: 595
sET recieved LOC 1: 595
sET recieved LOC 0: 594
sET recieved LOC 1: 594
sET recieved LOC 0: 593
sET recieved LOC 1: 593
sET recieved LOC 0: 592
sET recieved LOC 1: 592
sET recieved LOC 0: 591
sET recieved LOC 1: 591
sET recieved LOC 0: 590
sET recieved LOC 1: 590
sET recieved LOC 0: 589
sET recieved LOC 1: 589
sET recieved LOC 0: 580
sET recieved LOC 1: 580
sET recieved LOC 0: 581
sET recieved LOC 1: 581
sET recieved LOC 0: 585
sET recieved LOC 1: 585
sET recieved LOC 0: 583
sET recieved LOC 1: 583
sET recieved LOC 0: 582
sET recieved LOC 1: 582
sET recieved LOC 0: 1819
sET recieved LOC 1: 1819
sET recieved LOC 0: 1820
sET recieved LOC 1: 1820
sET recieved LOC 0: 1821
sET recieved LOC 1: 1821
sET recieved LOC 0: 562
sET recieved LOC 1: 562
sET recieved LOC 0: 563
sET recieved LOC 1: 563
sET recieved LOC 0: 564
sET recieved LOC 1: 564
sET recieved LOC 0: 565
sET recieved LOC 1: 565
sET recieved LOC 0: 513
sET recieved LOC 1: 513
sET recieved LOC 0: 177
sET recieved LOC 1: 177
sET recieved LOC 0: 540
sET recieved LOC 1: 540
sET recieved LOC 0: 555
sET recieved LOC 1: 555
sET recieved LOC 0: 556
sET recieved LOC 1: 556
sET recieved LOC 0: 561
sET recieved LOC 1: 561
sET recieved LOC 0: 1846
sET recieved LOC 1: 1846
sET recieved LOC 0: 1847
sET recieved LOC 1: 1847
sET recieved LOC 0: 372
sET recieved LOC 1: 372
sET recieved LOC 0: 321
sET recieved LOC 1: 321
sET recieved LOC 0: 491
sET recieved LOC 1: 491
sET recieved LOC 0: 492
sET recieved LOC 1: 492
sET recieved LOC 0: 493
sET recieved LOC 1: 493
sET recieved LOC 0: 494
sET recieved LOC 1: 494
sET recieved LOC 0: 2042
sET recieved LOC 1: 2042
sET recieved LOC 0: 1992
sET recieved LOC 1: 1992
sET recieved LOC 0: 34
sET recieved LOC 1: 34
sET recieved LOC 0: 45
sET recieved LOC 1: 45
sET recieved LOC 0: 35
sET recieved LOC 1: 35
sET recieved LOC 0: 702
sET recieved LOC 1: 702
sET recieved LOC 0: 230
sET recieved LOC 1: 230
sET recieved LOC 0: 231
sET recieved LOC 1: 231
sET recieved LOC 0: 232
sET recieved LOC 1: 232
sET recieved LOC 0: 233
sET recieved LOC 1: 233
sET recieved LOC 0: 234
sET recieved LOC 1: 234
sET recieved LOC 0: 235
sET recieved LOC 1: 235
sET recieved LOC 0: 236
sET recieved LOC 1: 236
sET recieved LOC 0: 237
sET recieved LOC 1: 237
sET recieved LOC 0: 243
sET recieved LOC 1: 243
sET recieved LOC 0: 244
sET recieved LOC 1: 244
sET recieved LOC 0: 245
sET recieved LOC 1: 245
sET recieved LOC 0: 246
sET recieved LOC 1: 246
sET recieved LOC 0: 247
sET recieved LOC 1: 247
sET recieved LOC 0: 1431
sET recieved LOC 1: 1431
sET recieved LOC 0: 1432
sET recieved LOC 1: 1432
sET recieved LOC 0: 2003
sET recieved LOC 1: 2003
sET recieved LOC 0: 1983
sET recieved LOC 1: 1983
sET recieved LOC 0: 965
sET recieved LOC 1: 965
sET recieved LOC 0: 703
sET recieved LOC 1: 703
sET recieved LOC 0: 1457
sET recieved LOC 1: 1457
sET recieved LOC 0: 1408
sET recieved LOC 1: 1408
sET recieved LOC 0: 68
sET recieved LOC 1: 68
sET recieved LOC 0: 2006
sET recieved LOC 1: 2006
sET recieved LOC 0: 1433
sET recieved LOC 1: 1433
sET recieved LOC 0: 69
sET recieved LOC 1: 69
sET recieved LOC 0: 70
sET recieved LOC 1: 70
[...]
sET recieved LOC 0: 1717
sET recieved LOC 1: 1717
sET recieved LOC 0: 1742
sET recieved LOC 1: 1742
sET recieved LOC 0: 1841
sET recieved LOC 1: 1841
sET recieved LOC 0: 316
sET recieved LOC 1: 316
sET recieved LOC 0: 1313
sET recieved LOC 1: 1313
sET recieved LOC 0: 1904
sET recieved LOC 1: 1904
sET recieved LOC 0: 1939
sET recieved LOC 1: 1939
sET recieved LOC 0: 2013
sET recieved LOC 1: 2013
sET recieved LOC 0: 38
sET recieved LOC 1: 38
sET recieved LOC 0: 66
sET recieved LOC 1: 66
sET recieved LOC 0: 317
sET recieved LOC 1: 317
sET recieved LOC 0: 1314
sET recieved LOC 1: 1314
sET recieved LOC 0: 191
sET recieved LOC 1: 191
sET recieved LOC 0: 248
sET recieved LOC 1: 248
sET recieved LOC 0: 318
sET recieved LOC 1: 318
sET recieved LOC 0: 1315
sET recieved LOC 1: 1315
sET recieved LOC 0: 283
sET recieved LOC 1: 283
sET recieved LOC 0: 342
sET recieved LOC 1: 342
sET recieved LOC 0: 440
sET recieved LOC 1: 440
sET recieved LOC 0: 470
sET recieved LOC 1: 470
sET recieved LOC 0: 319
sET recieved LOC 1: 319
sET recieved LOC 0: 1316
sET recieved LOC 1: 1316
sET recieved LOC 0: 515
sET recieved LOC 1: 515
sET recieved LOC 0: 598
sET recieved LOC 1: 598
sET recieved LOC 0: 675
sET recieved LOC 1: 675
sET recieved LOC 0: 704
sET recieved LOC 1: 704
sET recieved LOC 0: 825
sET recieved LOC 1: 825
sET recieved LOC 0: 1317
sET recieved LOC 1: 1317
sET recieved LOC 0: 870
sET recieved LOC 1: 870
sET recieved LOC 0: 705
sET recieved LOC 1: 705
sET recieved LOC 0: 931
sET recieved LOC 1: 931
sET recieved LOC 0: 965
sET recieved LOC 1: 965
sET recieved LOC 0: 1076
sET recieved LOC 1: 1076
sET recieved LOC 0: 1318
sET recieved LOC 1: 1318
sET recieved LOC 0: 1102
sET recieved LOC 1: 1102
sET recieved LOC 0: 706
sET recieved LOC 1: 706
sET recieved LOC 0: 1202
sET recieved LOC 1: 1202
sET recieved LOC 0: 1319
sET recieved LOC 1: 1319
sET recieved LOC 0: 1260
sET recieved LOC 1: 1260
sET recieved LOC 0: 707
sET recieved LOC 1: 707
sET recieved LOC 0: 304
sET recieved LOC 1: 304
sET recieved LOC 0: 1320
sET recieved LOC 1: 1320
sET recieved LOC 0: 1126
sET recieved LOC 1: 1126
sET recieved LOC 0: 2
sET recieved LOC 1: 2
sET recieved LOC 0: 708
sET recieved LOC 1: 708
sET recieved LOC 0: 1321
sET recieved LOC 1: 1321
sET recieved LOC 0: 553
sET recieved LOC 1: 553
sET recieved LOC 0: 269
sET recieved LOC 1: 269
sET recieved LOC 0: 270
sET recieved LOC 1: 270
sET recieved LOC 0: 271
sET recieved LOC 1: 271
sET recieved LOC 0: 554
sET recieved LOC 1: 554
sET recieved LOC 0: 555
sET recieved LOC 1: 555
sET recieved LOC 0: 562
sET recieved LOC 1: 562
sET recieved LOC 0: 563
sET recieved LOC 1: 563
sET recieved LOC 0: 564
sET recieved LOC 1: 564
sET recieved LOC 0: 565
sET recieved LOC 1: 565
sET recieved LOC 0: 566
sET recieved LOC 1: 566
sET recieved LOC 0: 569
sET recieved LOC 1: 569
sET recieved LOC 0: 568
sET recieved LOC 1: 568
sET recieved LOC 0: 556
sET recieved LOC 1: 556
sET recieved LOC 0: 557
sET recieved LOC 1: 557
sET recieved LOC 0: 570
sET recieved LOC 1: 570
sET recieved LOC 0: 258
sET recieved LOC 1: 258
sET recieved LOC 0: 259
sET recieved LOC 1: 259
sET recieved LOC 0: 260
sET recieved LOC 1: 260
sET recieved LOC 0: 261
sET recieved LOC 1: 261
sET recieved LOC 0: 296
sET recieved LOC 1: 296
sET recieved LOC 0: 528
sET recieved LOC 1: 528
sET recieved LOC 0: 530
sET recieved LOC 1: 530
sET recieved LOC 0: 531
sET recieved LOC 1: 531
sET recieved LOC 0: 532
sET recieved LOC 1: 532
sET recieved LOC 0: 571
sET recieved LOC 1: 571
sET recieved LOC 0: 257
sET recieved LOC 1: 257
sET recieved LOC 0: 983
sET recieved LOC 1: 983
sET recieved LOC 0: 400
sET recieved LOC 1: 400
sET recieved LOC 0: 1047
sET recieved LOC 1: 1047
sET recieved LOC 0: 1138
sET recieved LOC 1: 1138
sET recieved LOC 0: 1322
sET recieved LOC 1: 1322
sET recieved LOC 0: 1039
sET recieved LOC 1: 1039
sET recieved LOC 0: 1510
sET recieved LOC 1: 1510
sET recieved LOC 0: 1575
sET recieved LOC 1: 1575
sET recieved LOC 0: 1574
sET recieved LOC 1: 1574
sET recieved LOC 0: 1132
sET recieved LOC 1: 1132
sET recieved LOC 0: 709
sET recieved LOC 1: 709
sET recieved LOC 0: 1200
sET recieved LOC 1: 1200
sET recieved LOC 0: 1221
sET recieved LOC 1: 1221
sET recieved LOC 0: 1323
sET recieved LOC 1: 1323
sET recieved LOC 0: 231
sET recieved LOC 1: 231
sET recieved LOC 0: 235
sET recieved LOC 1: 235
sET recieved LOC 0: 1307
sET recieved LOC 1: 1307
sET recieved LOC 0: 710
sET recieved LOC 1: 710
sET recieved LOC 0: 1361
sET recieved LOC 1: 1361
sET recieved LOC 0: 1470
sET recieved LOC 1: 1470
sET recieved LOC 0: 711
sET recieved LOC 1: 711
sET recieved LOC 0: 1324
sET recieved LOC 1: 1324
sET recieved LOC 0: 1531
sET recieved LOC 1: 1531
sET recieved LOC 0: 1546
sET recieved LOC 1: 1546
sET recieved LOC 0: 1624
sET recieved LOC 1: 1624
sET recieved LOC 0: 712
sET recieved LOC 1: 712
sET recieved LOC 0: 1695
sET recieved LOC 1: 1695
sET recieved LOC 0: 1325
sET recieved LOC 1: 1325
sET recieved LOC 0: 141
sET recieved LOC 1: 141
sET recieved LOC 0: 1748
sET recieved LOC 1: 1748
sET recieved LOC 0: 1763
sET recieved LOC 1: 1763
sET recieved LOC 0: 713
sET recieved LOC 1: 713
sET recieved LOC 0: 1795
sET recieved LOC 1: 1795
sET recieved LOC 0: 333
sET recieved LOC 1: 333
sET recieved LOC 0: 332
sET recieved LOC 1: 332
sET recieved LOC 0: 322
sET recieved LOC 1: 322
sET recieved LOC 0: 1908
sET recieved LOC 1: 1908
sET recieved LOC 0: 714
sET recieved LOC 1: 714
sET recieved LOC 0: 1326
sET recieved LOC 1: 1326
sET recieved LOC 0: 1343
sET recieved LOC 1: 1343
sET recieved LOC 0: 960
sET recieved LOC 1: 960
sET recieved LOC 0: 162
sET recieved LOC 1: 162
sET recieved LOC 0: 1974
sET recieved LOC 1: 1974
sET recieved LOC 0: 2011
sET recieved LOC 1: 2011
sET recieved LOC 0: 715
sET recieved LOC 1: 715
sET recieved LOC 0: 1002
sET recieved LOC 1: 1002
sET recieved LOC 0: 1327
sET recieved LOC 1: 1327
sET recieved LOC 0: 42
sET recieved LOC 1: 42
sET recieved LOC 0: 432
sET recieved LOC 1: 432
sET recieved LOC 0: 876
sET recieved LOC 1: 876
sET recieved LOC 0: 80
sET recieved LOC 1: 80
sET recieved LOC 0: 1824
sET recieved LOC 1: 1824
sET recieved LOC 0: 142
sET recieved LOC 1: 142
sET recieved LOC 0: 716
sET recieved LOC 1: 716
sET recieved LOC 0: 224
sET recieved LOC 1: 224
sET recieved LOC 0: 1328
sET recieved LOC 1: 1328
sET recieved LOC 0: 287
sET recieved LOC 1: 287
sET recieved LOC 0: 374
sET recieved LOC 1: 374
sET recieved LOC 0: 717
sET recieved LOC 1: 717
sET recieved LOC 0: 423
sET recieved LOC 1: 423
sET recieved LOC 0: 473
sET recieved LOC 1: 473
sET recieved LOC 0: 522
sET recieved LOC 1: 522
sET recieved LOC 0: 718
sET recieved LOC 1: 718
sET recieved LOC 0: 1329
sET recieved LOC 1: 1329
sET recieved LOC 0: 636
sET recieved LOC 1: 636
sET recieved LOC 0: 675
sET recieved LOC 1: 675
sET recieved LOC 0: 676
sET recieved LOC 1: 676
sET recieved LOC 0: 1030
sET recieved LOC 1: 1030
sET recieved LOC 0: 720
sET recieved LOC 1: 720
sET recieved LOC 0: 719
sET recieved LOC 1: 719
sET recieved LOC 0: 1271
sET recieved LOC 1: 1271
sET recieved LOC 0: 1272
sET recieved LOC 1: 1272
sET recieved LOC 0: 1273
sET recieved LOC 1: 1273
sET recieved LOC 0: 815
sET recieved LOC 1: 815
sET recieved LOC 0: 1330
sET recieved LOC 1: 1330
sET recieved LOC 0: 1631
sET recieved LOC 1: 1631
sET recieved LOC 0: 720
sET recieved LOC 1: 720
sET recieved LOC 0: 893
sET recieved LOC 1: 893
sET recieved LOC 0: 948
sET recieved LOC 1: 948
sET recieved LOC 0: 1016
sET recieved LOC 1: 1016
sET recieved LOC 0: 721
sET recieved LOC 1: 721
sET recieved LOC 0: 1331
sET recieved LOC 1: 1331
sET recieved LOC 0: 1026
sET recieved LOC 1: 1026
sET recieved LOC 0: 1129
sET recieved LOC 1: 1129
sET recieved LOC 0: 1138
sET recieved LOC 1: 1138
sET recieved LOC 0: 1186
sET recieved LOC 1: 1186
sET recieved LOC 0: 1201
sET recieved LOC 1: 1201
sET recieved LOC 0: 1143
sET recieved LOC 1: 1143
sET recieved LOC 0: 1190
sET recieved LOC 1: 1190
sET recieved LOC 0: 1272
sET recieved LOC 1: 1272
sET recieved LOC 0: 1131
sET recieved LOC 1: 1131
sET recieved LOC 0: 1180
sET recieved LOC 1: 1180
sET recieved LOC 0: 1316
sET recieved LOC 1: 1316
sET recieved LOC 0: 641
sET recieved LOC 1: 641
sET recieved LOC 0: 642
sET recieved LOC 1: 642
sET recieved LOC 0: 643
sET recieved LOC 1: 643
sET recieved LOC 0: 644
sET recieved LOC 1: 644
sET recieved LOC 0: 645
sET recieved LOC 1: 645
sET recieved LOC 0: 646
sET recieved LOC 1: 646
sET recieved LOC 0: 654
sET recieved LOC 1: 654
sET recieved LOC 0: 649
sET recieved LOC 1: 649
sET recieved LOC 0: 650
sET recieved LOC 1: 650
sET recieved LOC 0: 1351
sET recieved LOC 1: 1351
sET recieved LOC 0: 722
sET recieved LOC 1: 722
sET recieved LOC 0: 1447
sET recieved LOC 1: 1447
sET recieved LOC 0: 1332
sET recieved LOC 1: 1332
sET recieved LOC 0: 1523
sET recieved LOC 1: 1523
sET recieved LOC 0: 1559
sET recieved LOC 1: 1559
sET recieved LOC 0: 723
sET recieved LOC 1: 723
sET recieved LOC 0: 793
sET recieved LOC 1: 793
sET recieved LOC 0: 1000
sET recieved LOC 1: 1000
sET recieved LOC 0: 1348
sET recieved LOC 1: 1348
sET recieved LOC 0: 1649
sET recieved LOC 1: 1649
sET recieved LOC 0: 724
sET recieved LOC 1: 724
sET recieved LOC 0: 1333
sET recieved LOC 1: 1333
sET recieved LOC 0: 1704
sET recieved LOC 1: 1704
sET recieved LOC 0: 1681
sET recieved LOC 1: 1681
sET recieved LOC 0: 1775
sET recieved LOC 1: 1775
sET recieved LOC 0: 725
sET recieved LOC 1: 725
sET recieved LOC 0: 1847
sET recieved LOC 1: 1847
sET recieved LOC 0: 1334
sET recieved LOC 1: 1334
sET recieved LOC 0: 1909
sET recieved LOC 1: 1909
sET recieved LOC 0: 726
sET recieved LOC 1: 726
sET recieved LOC 0: 1973
sET recieved LOC 1: 1973
sET recieved LOC 0: 2019
sET recieved LOC 1: 2019
sET recieved LOC 0: 2020
sET recieved LOC 1: 2020
sET recieved LOC 0: 30
sET recieved LOC 1: 30
sET recieved LOC 0: 87
sET recieved LOC 1: 87
sET recieved LOC 0: 727
sET recieved LOC 1: 727
sET recieved LOC 0: 1335
sET recieved LOC 1: 1335
sET recieved LOC 0: 173
sET recieved LOC 1: 173
sET recieved LOC 0: 1901
sET recieved LOC 1: 1901
sET recieved LOC 0: 503
sET recieved LOC 1: 503
sET recieved LOC 0: 728
sET recieved LOC 1: 728
sET recieved LOC 0: 222
sET recieved LOC 1: 222
sET recieved LOC 0: 1336
sET recieved LOC 1: 1336
sET recieved LOC 0: 261
sET recieved LOC 1: 261
sET recieved LOC 0: 345
sET recieved LOC 1: 345
sET recieved LOC 0: 346
sET recieved LOC 1: 346
sET recieved LOC 0: 729
sET recieved LOC 1: 729
sET recieved LOC 0: 430
sET recieved LOC 1: 430
sET recieved LOC 0: 1341
sET recieved LOC 1: 1341
sET recieved LOC 0: 468
sET recieved LOC 1: 468
sET recieved LOC 0: 730
sET recieved LOC 1: 730
sET recieved LOC 0: 1337
sET recieved LOC 1: 1337
sET recieved LOC 0: 560
sET recieved LOC 1: 560
sET recieved LOC 0: 629
sET recieved LOC 1: 629
sET recieved LOC 0: 670
sET recieved LOC 1: 670
sET recieved LOC 0: 731
sET recieved LOC 1: 731
sET recieved LOC 0: 767
sET recieved LOC 1: 767
sET recieved LOC 0: 1338
sET recieved LOC 1: 1338
sET recieved LOC 0: 806
sET recieved LOC 1: 806
sET recieved LOC 0: 732
sET recieved LOC 1: 732
sET recieved LOC 0: 887
sET recieved LOC 1: 887
sET recieved LOC 0: 904
sET recieved LOC 1: 904
sET recieved LOC 0: 971
sET recieved LOC 1: 971
sET recieved LOC 0: 733
sET recieved LOC 1: 733
sET recieved LOC 0: 1339
sET recieved LOC 1: 1339
sET recieved LOC 0: 1080
sET recieved LOC 1: 1080
sET recieved LOC 0: 2045
sET recieved LOC 1: 2045
sET recieved LOC 0: 1304
sET recieved LOC 1: 1304
sET recieved LOC 0: 1391
sET recieved LOC 1: 1391
sET recieved LOC 0: 734
sET recieved LOC 1: 734
sET recieved LOC 0: 1449
sET recieved LOC 1: 1449
sET recieved LOC 0: 1340
sET recieved LOC 1: 1340
sET recieved LOC 0: 1526
sET recieved LOC 1: 1526
sET recieved LOC 0: 735
sET recieved LOC 1: 735
sET recieved LOC 0: 1593
sET recieved LOC 1: 1593
sET recieved LOC 0: 1654
sET recieved LOC 1: 1654
sET recieved LOC 0: 1908
sET recieved LOC 1: 1908
sET recieved LOC 0: 736
sET recieved LOC 1: 736
sET recieved LOC 0: 1341
sET recieved LOC 1: 1341
sET recieved LOC 0: 1722
sET recieved LOC 1: 1722
sET recieved LOC 0: 1729
sET recieved LOC 1: 1729
sET recieved LOC 0: 1728
sET recieved LOC 1: 1728
sET recieved LOC 0: 1859
sET recieved LOC 1: 1859
sET recieved LOC 0: 598
sET recieved LOC 1: 598
sET recieved LOC 0: 737
sET recieved LOC 1: 737
sET recieved LOC 0: 1827
sET recieved LOC 1: 1827
sET recieved LOC 0: 1342
sET recieved LOC 1: 1342
sET recieved LOC 0: 1470
sET recieved LOC 1: 1470
sET recieved LOC 0: 1621
sET recieved LOC 1: 1621
sET recieved LOC 0: 1541
sET recieved LOC 1: 1541
sET recieved LOC 0: 1645
sET recieved LOC 1: 1645
sET recieved LOC 0: 1892
sET recieved LOC 1: 1892
sET recieved LOC 0: 738
sET recieved LOC 1: 738
sET recieved LOC 0: 1971
sET recieved LOC 1: 1971
sET recieved LOC 0: 1987
sET recieved LOC 1: 1987
sET recieved LOC 0: 28
sET recieved LOC 1: 28
sET recieved LOC 0: 1896
sET recieved LOC 1: 1896
sET recieved LOC 0: 739
sET recieved LOC 1: 739
sET recieved LOC 0: 117
sET recieved LOC 1: 117
sET recieved LOC 0: 1343
sET recieved LOC 1: 1343
sET recieved LOC 0: 174
sET recieved LOC 1: 174
sET recieved LOC 0: 207
sET recieved LOC 1: 207
sET recieved LOC 0: 276
sET recieved LOC 1: 276
sET recieved LOC 0: 275
sET recieved LOC 1: 275
sET recieved LOC 0: 401
sET recieved LOC 1: 401
sET recieved LOC 0: 740
sET recieved LOC 1: 740
sET recieved LOC 0: 335
sET recieved LOC 1: 335
sET recieved LOC 0: 384
sET recieved LOC 1: 384
sET recieved LOC 0: 471
sET recieved LOC 1: 471
sET recieved LOC 0: 741
sET recieved LOC 1: 741
sET recieved LOC 0: 545
sET recieved LOC 1: 545
sET recieved LOC 0: 1104
sET recieved LOC 1: 1104
sET recieved LOC 0: 622
sET recieved LOC 1: 622
sET recieved LOC 0: 742
sET recieved LOC 1: 742
sET recieved LOC 0: 385
sET recieved LOC 1: 385
sET recieved LOC 0: 2029
sET recieved LOC 1: 2029
sET recieved LOC 0: 701
sET recieved LOC 1: 701
sET recieved LOC 0: 1745
sET recieved LOC 1: 1745
sET recieved LOC 0: 743
sET recieved LOC 1: 743
sET recieved LOC 0: 724
sET recieved LOC 1: 724
sET recieved LOC 0: 386
sET recieved LOC 1: 386
sET recieved LOC 0: 806
sET recieved LOC 1: 806
sET recieved LOC 0: 1140
sET recieved LOC 1: 1140
sET recieved LOC 0: 1188
sET recieved LOC 1: 1188
sET recieved LOC 0: 887
sET recieved LOC 1: 887
sET recieved LOC 0: 1145
sET recieved LOC 1: 1145
sET recieved LOC 0: 1146
sET recieved LOC 1: 1146
sET recieved LOC 0: 953
sET recieved LOC 1: 953
sET recieved LOC 0: 1133
sET recieved LOC 1: 1133
sET recieved LOC 0: 1182
sET recieved LOC 1: 1182
sET recieved LOC 0: 1020
sET recieved LOC 1: 1020
sET recieved LOC 0: 744
sET recieved LOC 1: 744
sET recieved LOC 0: 1083
sET recieved LOC 1: 1083
sET recieved LOC 0: 1141
sET recieved LOC 1: 1141
sET recieved LOC 0: 1197
sET recieved LOC 1: 1197
sET recieved LOC 0: 1141
sET recieved LOC 1: 1141
sET recieved LOC 0: 1228
sET recieved LOC 1: 1228
sET recieved LOC 0: 1314
sET recieved LOC 1: 1314
sET recieved LOC 0: 1352
sET recieved LOC 1: 1352
sET recieved LOC 0: 1419
sET recieved LOC 1: 1419
sET recieved LOC 0: 1420
sET recieved LOC 1: 1420
sET recieved LOC 0: 1492
sET recieved LOC 1: 1492
sET recieved LOC 0: 745
sET recieved LOC 1: 745
sET recieved LOC 0: 387
sET recieved LOC 1: 387
sET recieved LOC 0: 1597
sET recieved LOC 1: 1597
sET recieved LOC 0: 1617
sET recieved LOC 1: 1617
sET recieved LOC 0: 1669
sET recieved LOC 1: 1669
sET recieved LOC 0: 746
sET recieved LOC 1: 746
sET recieved LOC 0: 1889
sET recieved LOC 1: 1889
sET recieved LOC 0: 388
sET recieved LOC 1: 388
sET recieved LOC 0: 1095
sET recieved LOC 1: 1095
sET recieved LOC 0: 747
sET recieved LOC 1: 747
sET recieved LOC 0: 1770
sET recieved LOC 1: 1770
sET recieved LOC 0: 1802
sET recieved LOC 1: 1802
sET recieved LOC 0: 1915
sET recieved LOC 1: 1915
sET recieved LOC 0: 1969
sET recieved LOC 1: 1969
sET recieved LOC 0: 748
sET recieved LOC 1: 748
sET recieved LOC 0: 389
sET recieved LOC 1: 389
sET recieved LOC 0: 2041
sET recieved LOC 1: 2041
sET recieved LOC 0: 44
sET recieved LOC 1: 44
sET recieved LOC 0: 1391
sET recieved LOC 1: 1391
sET recieved LOC 0: 105
sET recieved LOC 1: 105
sET recieved LOC 0: 749
sET recieved LOC 1: 749
sET recieved LOC 0: 153
sET recieved LOC 1: 153
sET recieved LOC 0: 390
sET recieved LOC 1: 390
sET recieved LOC 0: 155
sET recieved LOC 1: 155
sET recieved LOC 0: 750
sET recieved LOC 1: 750
sET recieved LOC 0: 193
sET recieved LOC 1: 193
sET recieved LOC 0: 123
sET recieved LOC 1: 123
sET recieved LOC 0: 301
sET recieved LOC 1: 301
sET recieved LOC 0: 347
sET recieved LOC 1: 347
sET recieved LOC 0: 751
sET recieved LOC 1: 751
sET recieved LOC 0: 391
sET recieved LOC 1: 391
sET recieved LOC 0: 1884
sET recieved LOC 1: 1884
sET recieved LOC 0: 445
sET recieved LOC 1: 445
sET recieved LOC 0: 451
sET recieved LOC 1: 451
sET recieved LOC 0: 752
sET recieved LOC 1: 752
sET recieved LOC 0: 532
sET recieved LOC 1: 532
sET recieved LOC 0: 533
sET recieved LOC 1: 533
sET recieved LOC 0: 534
sET recieved LOC 1: 534
sET recieved LOC 0: 535
sET recieved LOC 1: 535
sET recieved LOC 0: 852
sET recieved LOC 1: 852
sET recieved LOC 0: 851
sET recieved LOC 1: 851
sET recieved LOC 0: 853
sET recieved LOC 1: 853
sET recieved LOC 0: 854
sET recieved LOC 1: 854
sET recieved LOC 0: 855
sET recieved LOC 1: 855
sET recieved LOC 0: 856
sET recieved LOC 1: 856
Finished CPU 0 instructions: 1000001 cycles: 1412879 cumulative IPC: 0.707775 (Simulation time: 0 hr 0 min 5 sec) 

ChampSim completed all CPUs

Region of Interest Statistics

CPU 0 cumulative IPC: 0.707775 instructions: 1000001 cycles: 1412879
L1D TOTAL     ACCESS:     342537  HIT:     341469  MISS:       1068
L1D LOAD      ACCESS:     181932  HIT:     181333  MISS:        599
L1D RFO       ACCESS:     160605  HIT:     160136  MISS:        469
L1D PREFETCH  ACCESS:          0  HIT:          0  MISS:          0
L1D WRITEBACK ACCESS:          0  HIT:          0  MISS:          0
L1D PREFETCH  REQUESTED:          0  ISSUED:          0  USEFUL:          0  USELESS:          0
L1D AVERAGE MISS LATENCY: 80.9101 cycles
L1I TOTAL     ACCESS:     187942  HIT:     185154  MISS:       2788
L1I LOAD      ACCESS:     187942  HIT:     185154  MISS:       2788
L1I RFO       ACCESS:          0  HIT:          0  MISS:          0
L1I PREFETCH  ACCESS:          0  HIT:          0  MISS:          0
L1I WRITEBACK ACCESS:          0  HIT:          0  MISS:          0
L1I PREFETCH  REQUESTED:          0  ISSUED:          0  USEFUL:          0  USELESS:          0
L1I AVERAGE MISS LATENCY: 17.4448 cycles
L2C TOTAL     ACCESS:       4685  HIT:       4249  MISS:        436
L2C LOAD      ACCESS:       3387  HIT:       2987  MISS:        400
L2C RFO       ACCESS:        469  HIT:        433  MISS:         36
L2C PREFETCH  ACCESS:          0  HIT:          0  MISS:          0
L2C WRITEBACK ACCESS:        829  HIT:        829  MISS:          0
L2C PREFETCH  REQUESTED:          0  ISSUED:          0  USEFUL:          0  USELESS:          0
L2C AVERAGE MISS LATENCY: 181.761 cycles
LLC TOTAL     ACCESS:        436  HIT:          0  MISS:        436
LLC LOAD      ACCESS:        400  HIT:          0  MISS:        400
LLC RFO       ACCESS:         36  HIT:          0  MISS:         36
LLC PREFETCH  ACCESS:          0  HIT:          0  MISS:          0
LLC WRITEBACK ACCESS:          0  HIT:          0  MISS:          0
LLC PREFETCH  REQUESTED:          0  ISSUED:          0  USEFUL:          0  USELESS:          0
LLC AVERAGE MISS LATENCY: 151.75 cycles
Major fault: 0 Minor fault: 455

DRAM Statistics
 CHANNEL 0
 RQ ROW_BUFFER_HIT:         92  ROW_BUFFER_MISS:        344
 DBUS_CONGESTED:         23
 WQ ROW_BUFFER_HIT:          0  ROW_BUFFER_MISS:          0  FULL:          0

 AVG_CONGESTED_CYCLE: 6

CPU 0 Branch Prediction Accuracy: 86.5907% MPKI: 23.6619 Average ROB Occupancy at Mispredict: 20.0788

Branch types
NOT_BRANCH: 823224 82.3223%
BRANCH_DIRECT_JUMP: 8906 0.890599%
BRANCH_INDIRECT: 0 0%
BRANCH_CONDITIONAL: 141156 14.1156%
BRANCH_DIRECT_CALL: 13195 1.3195%
BRANCH_INDIRECT_CALL: 0 0%
BRANCH_RETURN: 13202 1.3202%
BRANCH_OTHER: 0 0%

