
*** ChampSim Multicore Out-of-Order Simulator ***

Warmup Instructions: 100000000
Simulation Instructions: 100000000
Number of CPUs: 1
LLC sets: 2048
LLC ways: 16
Off-chip DRAM Size: 4096 MB Channels: 1 Width: 64-bit Data Rate: 3200 MT/s

CPU 0 runs /mnt/c/Users/Asus/OneDrive/Desktop/ACADEMICS/SEM4/CS204/ChampSim/dpc3_traces/444.namd-120B.champsimtrace.xz
CPU 0 Bimodal branch predictor
Initialize SRRIP state
Heartbeat CPU 0 instructions: 10000000 cycles: 3770470 heartbeat IPC: 2.65219 cumulative IPC: 2.65219 (Simulation time: 0 hr 0 min 16 sec) 
Heartbeat CPU 0 instructions: 20000003 cycles: 7391821 heartbeat IPC: 2.7614 cumulative IPC: 2.70569 (Simulation time: 0 hr 0 min 33 sec) 
Heartbeat CPU 0 instructions: 30000000 cycles: 11133844 heartbeat IPC: 2.67235 cumulative IPC: 2.69449 (Simulation time: 0 hr 0 min 49 sec) 
Heartbeat CPU 0 instructions: 40000002 cycles: 14806295 heartbeat IPC: 2.72298 cumulative IPC: 2.70155 (Simulation time: 0 hr 1 min 5 sec) 
Heartbeat CPU 0 instructions: 50000002 cycles: 18627461 heartbeat IPC: 2.617 cumulative IPC: 2.68421 (Simulation time: 0 hr 1 min 22 sec) 
Heartbeat CPU 0 instructions: 60000003 cycles: 22401198 heartbeat IPC: 2.64989 cumulative IPC: 2.67843 (Simulation time: 0 hr 1 min 39 sec) 
Heartbeat CPU 0 instructions: 70000003 cycles: 26146574 heartbeat IPC: 2.66996 cumulative IPC: 2.67722 (Simulation time: 0 hr 1 min 56 sec) 
Heartbeat CPU 0 instructions: 80000001 cycles: 29858188 heartbeat IPC: 2.69425 cumulative IPC: 2.67933 (Simulation time: 0 hr 2 min 12 sec) 
Heartbeat CPU 0 instructions: 90000002 cycles: 33529864 heartbeat IPC: 2.72355 cumulative IPC: 2.68417 (Simulation time: 0 hr 2 min 28 sec) 
Heartbeat CPU 0 instructions: 100000002 cycles: 37181997 heartbeat IPC: 2.73813 cumulative IPC: 2.68947 (Simulation time: 0 hr 2 min 45 sec) 

Warmup complete CPU 0 instructions: 100000002 cycles: 37181997 (Simulation time: 0 hr 2 min 45 sec) 

Heartbeat CPU 0 instructions: 110000000 cycles: 42612062 heartbeat IPC: 1.8416 cumulative IPC: 1.8416 (Simulation time: 0 hr 2 min 59 sec) 
Heartbeat CPU 0 instructions: 120000002 cycles: 48075967 heartbeat IPC: 1.83019 cumulative IPC: 1.83588 (Simulation time: 0 hr 3 min 13 sec) 
Heartbeat CPU 0 instructions: 130000001 cycles: 53598020 heartbeat IPC: 1.81092 cumulative IPC: 1.82748 (Simulation time: 0 hr 3 min 27 sec) 
Heartbeat CPU 0 instructions: 140000001 cycles: 58885113 heartbeat IPC: 1.8914 cumulative IPC: 1.84305 (Simulation time: 0 hr 3 min 40 sec) 
Heartbeat CPU 0 instructions: 150000003 cycles: 64414997 heartbeat IPC: 1.80836 cumulative IPC: 1.83601 (Simulation time: 0 hr 3 min 54 sec) 
Heartbeat CPU 0 instructions: 160000001 cycles: 69508367 heartbeat IPC: 1.96334 cumulative IPC: 1.85607 (Simulation time: 0 hr 4 min 6 sec) 
Heartbeat CPU 0 instructions: 170000003 cycles: 74856038 heartbeat IPC: 1.86997 cumulative IPC: 1.85804 (Simulation time: 0 hr 4 min 18 sec) 
Heartbeat CPU 0 instructions: 180000001 cycles: 80145908 heartbeat IPC: 1.89041 cumulative IPC: 1.86203 (Simulation time: 0 hr 4 min 31 sec) 
Heartbeat CPU 0 instructions: 190000003 cycles: 85666006 heartbeat IPC: 1.81156 cumulative IPC: 1.85628 (Simulation time: 0 hr 4 min 44 sec) 
Heartbeat CPU 0 instructions: 200000000 cycles: 91090427 heartbeat IPC: 1.84351 cumulative IPC: 1.855 (Simulation time: 0 hr 4 min 58 sec) 
Finished CPU 0 instructions: 100000002 cycles: 53908431 cumulative IPC: 1.855 (Simulation time: 0 hr 4 min 58 sec) 

ChampSim completed all CPUs

Region of Interest Statistics

CPU 0 cumulative IPC: 1.855 instructions: 100000002 cycles: 53908431
L1D TOTAL     ACCESS:   19540046  HIT:   19327605  MISS:     212441
L1D LOAD      ACCESS:   16044774  HIT:   15842700  MISS:     202074
L1D RFO       ACCESS:    3495272  HIT:    3484905  MISS:      10367
L1D PREFETCH  ACCESS:          0  HIT:          0  MISS:          0
L1D WRITEBACK ACCESS:          0  HIT:          0  MISS:          0
L1D PREFETCH  REQUESTED:          0  ISSUED:          0  USEFUL:          0  USELESS:          0
L1D AVERAGE MISS LATENCY: 19.689 cycles
L1I TOTAL     ACCESS:   17066421  HIT:   17066401  MISS:         20
L1I LOAD      ACCESS:   17066421  HIT:   17066401  MISS:         20
L1I RFO       ACCESS:          0  HIT:          0  MISS:          0
L1I PREFETCH  ACCESS:          0  HIT:          0  MISS:          0
L1I WRITEBACK ACCESS:          0  HIT:          0  MISS:          0
L1I PREFETCH  REQUESTED:          0  ISSUED:          0  USEFUL:          0  USELESS:          0
L1I AVERAGE MISS LATENCY: 165.35 cycles
L2C TOTAL     ACCESS:     250192  HIT:     236904  MISS:      13288
L2C LOAD      ACCESS:     202076  HIT:     188808  MISS:      13268
L2C RFO       ACCESS:      10364  HIT:      10346  MISS:         18
L2C PREFETCH  ACCESS:          0  HIT:          0  MISS:          0
L2C WRITEBACK ACCESS:      37752  HIT:      37750  MISS:          2
L2C PREFETCH  REQUESTED:          0  ISSUED:          0  USEFUL:          0  USELESS:          0
L2C AVERAGE MISS LATENCY: 74.7331 cycles
LLC TOTAL     ACCESS:      15835  HIT:       9624  MISS:       6211
LLC LOAD      ACCESS:      13268  HIT:       7063  MISS:       6205
LLC RFO       ACCESS:         18  HIT:         12  MISS:          6
LLC PREFETCH  ACCESS:          0  HIT:          0  MISS:          0
LLC WRITEBACK ACCESS:       2549  HIT:       2549  MISS:          0
LLC PREFETCH  REQUESTED:          0  ISSUED:          0  USEFUL:          0  USELESS:          0
LLC AVERAGE MISS LATENCY: 95.4946 cycles
Major fault: 0 Minor fault: 595

DRAM Statistics
 CHANNEL 0
 RQ ROW_BUFFER_HIT:       4768  ROW_BUFFER_MISS:       1443
 DBUS_CONGESTED:       1046
 WQ ROW_BUFFER_HIT:          0  ROW_BUFFER_MISS:          0  FULL:          0

 AVG_CONGESTED_CYCLE: 3

CPU 0 Branch Prediction Accuracy: 95.8307% MPKI: 2.4373 Average ROB Occupancy at Mispredict: 33.4592

Branch types
NOT_BRANCH: 94153915 94.1539%
BRANCH_DIRECT_JUMP: 333362 0.333362%
BRANCH_INDIRECT: 0 0%
BRANCH_CONDITIONAL: 5512210 5.51221%
BRANCH_DIRECT_CALL: 116 0.000116%
BRANCH_INDIRECT_CALL: 0 0%
BRANCH_RETURN: 116 0.000116%
BRANCH_OTHER: 0 0%

