
*** ChampSim Multicore Out-of-Order Simulator ***

Warmup Instructions: 1000000
Simulation Instructions: 1000000
Number of CPUs: 1
LLC sets: 2048
LLC ways: 16
Off-chip DRAM Size: 4096 MB Channels: 1 Width: 64-bit Data Rate: 3200 MT/s

CPU 0 runs /mnt/c/Users/Asus/OneDrive/Desktop/ACADEMICS/SEM4/CS204/ChampSim/dpc3_traces/605.mcf_s-1536B.champsimtrace.xz
CPU 0 Bimodal branch predictor
Initialize SRRIP state
it first: 0
it first: 1
it first: 2
it first: 1
it first: 3
it first: 4
it first: 5
it first: 6
it first: 7
it first: 8
it first: 9
it first: 10
it first: 11
it first: 12
it first: 13
it first: 14
it first: 15
it first: 16
it first: 17
it first: 18
it first: 19
it first: 20
it first: 21
it first: 22
it first: 23
it first: 24
it first: 25
it first: 26
it first: 27
it first: 28
it first: 29
it first: 30
it first: 31
it first: 32
it first: 33
it first: 34
it first: 35
it first: 36
it first: 37
it first: 38
it first: 39
it first: 40
it first: 41
it first: 42
it first: 43
it first: 44
it first: 45
it first: 46
it first: 47
it first: 48
it first: 49
it first: 50
it first: 51
it first: 52
it first: 53
it first: 54
it first: 55
it first: 56
it first: 57
it first: 58
it first: 59
it first: 60
it first: 61
it first: 62
it first: 63
it first: 64
it first: 65
it first: 66
it first: 67
it first: 68
it first: 69
it first: 70
it first: 71
it first: 72
it first: 73
it first: 74
it first: 75
it first: 76
it first: 77
it first: 78
it first: 79
it first: 80
it first: 81
it first: 82
it first: 83
it first: 84
it first: 85
it first: 86
it first: 87
it first: 88
it first: 89
it first: 90
it first: 91
it first: 92
it first: 93
it first: 94
it first: 95
it first: 96
it first: 97
it first: 98
it first: 99
it first: 100
it first: 101
it first: 102
it first: 103
it first: 104
it first: 105
it first: 106
it first: 107
it first: 108
it first: 109
it first: 110
it first: 111
it first: 112
it first: 113
it first: 114
it first: 115
it first: 116
it first: 117
it first: 118
it first: 119
it first: 120
it first: 121
it first: 122
it first: 123
it first: 124
it first: 125
it first: 126
it first: 127
it first: 128
it first: 129
it first: 130
it first: 131
it first: 132
it first: 133
it first: 134
it first: 135
it first: 136
it first: 137
it first: 138
it first: 139
it first: 140
it first: 141
it first: 142
it first: 143
it first: 144
it first: 145
it first: 146
it first: 147
it first: 148
it first: 149
it first: 150
it first: 151
it first: 152
it first: 153
it first: 154
it first: 155
it first: 156
it first: 157
it first: 158
it first: 159
it first: 160
it first: 161
it first: 162
it first: 163
it first: 164
it first: 165
it first: 166
it first: 167
it first: 168
it first: 169
it first: 170
it first: 171
it first: 172
it first: 173
it first: 174
it first: 175
it first: 176
it first: 177
it first: 178
it first: 179
it first: 180
it first: 181
it first: 182
it first: 183
it first: 184
it first: 185
it first: 186
it first: 187
it first: 188
it first: 189
it first: 190
it first: 191
it first: 192
it first: 193
it first: 194
it first: 195
it first: 196
it first: 197
it first: 198
it first: 199
it first: 200
it first: 201
it first: 202
it first: 203
it first: 204
it first: 205
it first: 206
it first: 207
it first: 208
it first: 209
it first: 210
it first: 211
it first: 212
it first: 213
it first: 214
it first: 215
it first: 216
it first: 217
it first: 218
it first: 219
it first: 220
it first: 221
it first: 222
it first: 223
it first: 224
it first: 225
it first: 226
it first: 227
it first: 228
it first: 229
it first: 230
it first: 231
it first: 232
it first: 233
it first: 234
it first: 235
it first: 236
it first: 237
it first: 238
it first: 239
it first: 240
it first: 241
it first: 242
it first: 243
it first: 244
it first: 245
it first: 246
it first: 247
it first: 248
it first: 249
it first: 250
it first: 251
it first: 252
it first: 253
it first: 254
it first: 255
it first: 256
it first: 257
it first: 258
it first: 259
it first: 260
it first: 261
it first: 262
it first: 263
it first: 264
it first: 265
it first: 266
it first: 267
it first: 268
it first: 269
it first: 270
it first: 271
it first: 272
it first: 273
it first: 274
it first: 275
it first: 276
it first: 277
it first: 278
it first: 279
it first: 280
it first: 281
it first: 282
it first: 283
it first: 284
it first: 285
it first: 286
it first: 287
it first: 288
it first: 289
it first: 290
it first: 291
it first: 292
it first: 293
it first: 294
it first: 295
it first: 296
it first: 297
it first: 298
it first: 299
it first: 300
it first: 301
it first: 302
it first: 303
it first: 304
it first: 305
it first: 306
it first: 307
it first: 308
it first: 309
it first: 310
it first: 311
it first: 312
it first: 313
it first: 314
it first: 315
it first: 316
it first: 317
it first: 318
it first: 319
it first: 320
it first: 321
it first: 322
it first: 323
it first: 324
it first: 325
it first: 326
it first: 327
it first: 328
it first: 329
it first: 330
it first: 331
it first: 332
it first: 333
it first: 334
it first: 335
it first: 336
it first: 337
it first: 338
it first: 339
it first: 340
it first: 341
it first: 342
it first: 343
it first: 344
it first: 345
it first: 346
it first: 347
it first: 348
it first: 349
it first: 350
it first: 351
it first: 352
it first: 353
it first: 354
it first: 355
it first: 356
it first: 357
it first: 358
it first: 359
it first: 360
it first: 361
it first: 362
it first: 363
it first: 364
it first: 365
it first: 366
it first: 367
it first: 368
it first: 369
it first: 370
it first: 371
it first: 372
it first: 373
it first: 374
it first: 375
it first: 376
it first: 377
it first: 378
it first: 379
it first: 380
it first: 381
it first: 382
it first: 383
it first: 384
it first: 385
it first: 386
it first: 387
it first: 388
it first: 389
it first: 390
it first: 391
it first: 392
it first: 393
it first: 394
it first: 395
it first: 396
it first: 397
it first: 398
it first: 399
it first: 400
it first: 401
it first: 402
it first: 403
it first: 404
it first: 405
it first: 406
it first: 407
it first: 408
it first: 409
it first: 410
it first: 411
it first: 412
it first: 413
it first: 414
it first: 415
it first: 416
it first: 417
it first: 418
it first: 419
it first: 420
it first: 421
it first: 422
it first: 423
it first: 424
it first: 425
it first: 426
it first: 427
it first: 428
it first: 429
it first: 430
it first: 431
it first: 432
it first: 433
it first: 434
it first: 435
it first: 436
it first: 437
it first: 438
it first: 439
it first: 440
it first: 441
it first: 442
it first: 443
it first: 444
it first: 445
it first: 446
it first: 447
it first: 448
it first: 449
it first: 450
it first: 451
it first: 452
it first: 453
it first: 454
it first: 455
it first: 456
it first: 457
it first: 458
it first: 459
it first: 460
it first: 461
it first: 462
it first: 463
it first: 464
it first: 465
it first: 466
it first: 467
it first: 468
it first: 469
it first: 470
it first: 471
it first: 472
it first: 473
it first: 474
it first: 475
it first: 476
it first: 477
it first: 478
it first: 479
it first: 480
it first: 481
it first: 482
it first: 483
it first: 484
it first: 485
it first: 486
it first: 487
it first: 488
it first: 489
it first: 490
it first: 491
it first: 492
it first: 493
it first: 494
it first: 495
it first: 496
it first: 497
it first: 498
it first: 499
it first: 500
it first: 501
it first: 502
it first: 503
it first: 504
it first: 505
it first: 506
it first: 507
it first: 508
it first: 509
it first: 510
it first: 511
it first: 512
it first: 513
it first: 514
it first: 515
it first: 516
it first: 517
it first: 518
it first: 519
it first: 520
it first: 521
it first: 522
it first: 523
it first: 524
it first: 525
it first: 526
it first: 527
it first: 528
it first: 529
it first: 530
it first: 531
it first: 532
it first: 533
it first: 534
it first: 535
it first: 536
it first: 537
it first: 538
it first: 539
it first: 540
it first: 541
it first: 542
it first: 543
it first: 544
it first: 545
it first: 546
it first: 547
it first: 548
it first: 549
it first: 550
it first: 551
it first: 552
it first: 553
it first: 554
it first: 555
it first: 556
it first: 557
it first: 558
it first: 559
it first: 560
it first: 561
it first: 562
it first: 563
it first: 564
it first: 565
it first: 566
it first: 567
it first: 568
it first: 569
it first: 570
it first: 571
it first: 572
it first: 573
it first: 574
it first: 575
it first: 576
it first: 577
it first: 578
it first: 579
it first: 580
it first: 581
it first: 582
it first: 583
it first: 584
it first: 585
it first: 586
it first: 587
it first: 588
it first: 589
it first: 590
it first: 591
it first: 592
it first: 593
it first: 594
it first: 595
it first: 596
it first: 597
it first: 598
it first: 599
it first: 600
it first: 601
it first: 602
it first: 603
it first: 604
it first: 605
it first: 606
it first: 607
it first: 608
it first: 609
it first: 610
it first: 611
it first: 612
it first: 613
it first: 614
it first: 615
it first: 616
it first: 617
it first: 618
it first: 619
it first: 620
it first: 621
it first: 622
it first: 623
it first: 624
it first: 625
it first: 626
it first: 627
it first: 628
it first: 629
it first: 630
it first: 631
it first: 632
it first: 633
it first: 634
it first: 635
it first: 636
it first: 637
it first: 638
it first: 639
it first: 640
it first: 641
it first: 642
it first: 643
it first: 644
it first: 645
it first: 646
it first: 647
it first: 648
it first: 649
it first: 650
it first: 651
it first: 652
it first: 653
it first: 654

Warmup complete CPU 0 instructions: 1000001 cycles: 327988 (Simulation time: 0 hr 0 min 2 sec) 

it first: 655
it first: 656
it first: 657
it first: 658
it first: 659
it first: 660
it first: 661
it first: 662
it first: 663
it first: 664
it first: 665
it first: 666
it first: 667
it first: 668
it first: 669
it first: 670
it first: 671
it first: 672
it first: 673
it first: 674
it first: 675
it first: 676
it first: 677
it first: 678
it first: 679
it first: 680
it first: 681
it first: 682
it first: 683
it first: 684
it first: 685
it first: 686
it first: 687
it first: 688
it first: 689
it first: 690
it first: 691
it first: 692
it first: 693
it first: 694
it first: 695
it first: 696
it first: 697
it first: 698
it first: 699
it first: 700
it first: 701
it first: 702
it first: 703
it first: 704
it first: 705
it first: 706
it first: 707
it first: 708
it first: 709
it first: 291
it first: 710
it first: 711
it first: 712
it first: 713
it first: 714
it first: 715
it first: 716
it first: 717
it first: 718
it first: 719
it first: 720
it first: 721
it first: 722
it first: 723
it first: 724
it first: 725
it first: 726
it first: 727
it first: 728
it first: 729
it first: 730
it first: 731
it first: 732
it first: 733
it first: 734
it first: 735
it first: 736
it first: 737
it first: 738
it first: 739
it first: 740
it first: 741
it first: 742
it first: 743
it first: 744
it first: 745
it first: 746
it first: 747
it first: 748
it first: 749
it first: 750
it first: 751
it first: 752
it first: 753
it first: 754
it first: 755
it first: 756
it first: 757
it first: 758
it first: 759
it first: 760
it first: 761
it first: 762
it first: 763
it first: 764
it first: 765
it first: 766
it first: 767
it first: 768
it first: 769
it first: 770
it first: 771
it first: 772
it first: 773
it first: 774
it first: 775
it first: 776
it first: 777
it first: 778
it first: 779
it first: 780
it first: 781
it first: 782
it first: 783
it first: 784
it first: 785
it first: 786
it first: 787
it first: 788
it first: 789
it first: 790
it first: 791
it first: 792
it first: 793
it first: 794
it first: 795
it first: 796
it first: 797
it first: 798
it first: 799
it first: 800
it first: 801
it first: 802
it first: 803
it first: 804
it first: 805
it first: 806
it first: 807
it first: 808
it first: 809
it first: 810
it first: 811
it first: 812
it first: 813
it first: 814
it first: 815
it first: 816
it first: 817
it first: 818
it first: 819
it first: 820
it first: 821
it first: 822
it first: 823
it first: 824
it first: 825
it first: 826
it first: 827
it first: 828
it first: 829
it first: 830
it first: 831
it first: 832
it first: 833
it first: 834
it first: 835
it first: 836
it first: 837
it first: 838
it first: 839
it first: 840
it first: 841
it first: 842
it first: 843
it first: 844
it first: 845
it first: 846
it first: 847
it first: 848
it first: 849
it first: 850
it first: 851
it first: 852
it first: 853
it first: 854
it first: 855
it first: 856
it first: 857
it first: 858
it first: 859
it first: 860
it first: 861
it first: 862
it first: 863
it first: 864
it first: 865
it first: 866
it first: 867
it first: 868
it first: 869
it first: 870
it first: 871
it first: 872
it first: 873
it first: 874
it first: 875
it first: 876
it first: 877
it first: 878
it first: 879
it first: 880
it first: 881
it first: 882
it first: 883
it first: 884
it first: 885
it first: 886
it first: 887
it first: 888
it first: 889
it first: 890
it first: 891
it first: 892
it first: 893
it first: 894
it first: 895
it first: 896
it first: 897
it first: 898
it first: 899
it first: 900
it first: 901
it first: 477
it first: 902
it first: 903
it first: 904
it first: 905
it first: 906
it first: 907
it first: 908
it first: 909
it first: 910
it first: 911
it first: 912
it first: 913
it first: 914
it first: 915
it first: 916
it first: 917
it first: 918
it first: 919
it first: 920
it first: 921
it first: 922
it first: 923
it first: 924
it first: 925
it first: 926
it first: 927
it first: 928
it first: 929
it first: 930
it first: 931
it first: 932
it first: 933
it first: 934
it first: 935
it first: 936
it first: 937
it first: 938
it first: 939
it first: 940
it first: 941
it first: 942
it first: 943
it first: 944
it first: 945
it first: 946
it first: 947
it first: 948
it first: 949
it first: 950
it first: 951
it first: 952
it first: 953
it first: 954
it first: 955
it first: 956
it first: 957
it first: 958
it first: 959
it first: 960
it first: 961
it first: 962
it first: 963
it first: 964
it first: 965
it first: 966
it first: 967
it first: 968
it first: 969
it first: 970
it first: 971
it first: 972
it first: 973
it first: 974
it first: 975
it first: 976
it first: 977
it first: 978
it first: 979
it first: 980
it first: 981
it first: 982
it first: 983
it first: 984
it first: 985
it first: 986
it first: 987
it first: 988
it first: 989
it first: 990
it first: 991
it first: 992
it first: 993
it first: 994
it first: 995
it first: 996
it first: 997
it first: 998
it first: 999
it first: 1000
it first: 1001
it first: 1002
it first: 1003
it first: 1004
it first: 1005
it first: 1006
it first: 1007
it first: 1008
it first: 1009
it first: 1010
it first: 1011
it first: 1012
it first: 1013
it first: 1014
it first: 1015
it first: 1016
it first: 1017
it first: 1018
it first: 1019
it first: 1020
it first: 1021
it first: 1022
it first: 1023
it first: 1024
it first: 1025
it first: 1026
it first: 1027
it first: 1028
it first: 1029
it first: 1030
it first: 1031
it first: 1032
it first: 1033
it first: 1034
it first: 1035
it first: 1036
it first: 1037
it first: 1038
it first: 1039
it first: 1040
it first: 1041
it first: 1042
it first: 1043
it first: 1044
it first: 1045
it first: 1046
it first: 1047
it first: 1048
it first: 1049
it first: 1050
it first: 1051
it first: 1052
it first: 1053
it first: 1054
it first: 1055
it first: 1056
it first: 1057
it first: 1058
it first: 1059
it first: 1060
it first: 1061
it first: 1062
it first: 1063
it first: 1064
it first: 1065
it first: 1066
it first: 1067
it first: 1068
it first: 1069
it first: 1070
it first: 1071
it first: 1072
it first: 1073
it first: 1074
it first: 1075
it first: 1076
it first: 1077
it first: 1078
it first: 1034
it first: 1079
it first: 1080
it first: 1081
it first: 1082
it first: 1083
it first: 1084
it first: 1085
it first: 1086
it first: 1087
it first: 1088
it first: 1089
it first: 1090
it first: 1091
it first: 1092
it first: 1093
it first: 1094
it first: 1095
it first: 1096
it first: 1097
it first: 1098
it first: 1099
it first: 1100
it first: 1101
it first: 1102
it first: 1103
it first: 1104
it first: 1105
it first: 1106
it first: 1107
it first: 1108
it first: 1109
it first: 1110
it first: 1111
it first: 1112
it first: 1113
it first: 1114
it first: 1115
it first: 1116
it first: 1117
it first: 1118
it first: 1119
it first: 1120
it first: 1121
it first: 1122
it first: 1123
it first: 1124
it first: 1125
it first: 1126
it first: 1127
it first: 1128
it first: 1129
it first: 1130
it first: 1131
it first: 1132
it first: 1133
it first: 1134
it first: 1135
it first: 1136
it first: 1137
it first: 1138
it first: 1139
it first: 1140
it first: 1141
it first: 1142
it first: 1143
it first: 1144
it first: 1145
it first: 1146
it first: 1147
it first: 1148
it first: 1149
it first: 1150
it first: 1151
it first: 1152
it first: 1153
it first: 1154
it first: 1155
it first: 1156
it first: 1157
it first: 1158
it first: 1159
it first: 1160
it first: 1161
it first: 1162
it first: 1163
it first: 1164
it first: 1165
it first: 1166
it first: 1167
it first: 1168
it first: 1169
it first: 1170
it first: 1171
it first: 1172
it first: 1173
it first: 1174
it first: 1175
it first: 1176
it first: 1177
it first: 1178
it first: 1179
it first: 1180
it first: 1181
it first: 1182
it first: 1183
it first: 1184
it first: 1185
it first: 1186
it first: 1187
it first: 1188
it first: 1189
it first: 1190
it first: 1191
it first: 1192
it first: 1193
it first: 1194
it first: 1195
it first: 1196
it first: 1197
it first: 1198
it first: 1199
it first: 1200
it first: 1201
it first: 1202
it first: 1203
it first: 1204
it first: 1205
it first: 1206
it first: 1207
it first: 1208
it first: 1209
it first: 1210
it first: 1211
it first: 1212
it first: 1213
it first: 1214
it first: 1215
it first: 1216
it first: 1217
it first: 1218
it first: 1219
it first: 1220
it first: 1221
it first: 1222
it first: 1223
it first: 1224
it first: 1225
it first: 1226
it first: 1227
it first: 1228
it first: 1229
it first: 1230
it first: 1231
it first: 1232
it first: 1233
it first: 1234
it first: 1235
it first: 1236
it first: 1237
it first: 1238
it first: 1239
it first: 1240
it first: 1241
it first: 1242
it first: 1243
it first: 1244
it first: 1245
it first: 1246
it first: 1247
it first: 1248
it first: 1249
it first: 1250
it first: 1251
it first: 1252
it first: 1253
it first: 1254
it first: 1255
it first: 1256
it first: 1257
it first: 1258
it first: 1259
it first: 1260
it first: 277
it first: 1261
it first: 1262
it first: 1263
it first: 1264
it first: 1265
it first: 1266
it first: 1267
it first: 1268
it first: 1269
it first: 1270
it first: 1271
it first: 1272
it first: 1273
it first: 1274
it first: 1275
it first: 1276
it first: 1277
it first: 1278
it first: 1279
it first: 1280
it first: 1281
it first: 1282
it first: 1283
it first: 1284
it first: 1285
it first: 1286
it first: 1287
it first: 1288
it first: 1289
it first: 1290
it first: 1291
it first: 1292
it first: 1293
it first: 1294
it first: 1295
it first: 1296
it first: 1297
it first: 1298
it first: 1299
it first: 1300
it first: 1301
it first: 1302
it first: 1303
it first: 1304
it first: 1305
it first: 1306
it first: 1307
it first: 1308
it first: 1309
it first: 1310
it first: 1311
it first: 1312
it first: 1313
it first: 1314
it first: 1315
it first: 1316
it first: 1317
it first: 1318
it first: 1319
it first: 1320
it first: 1321
it first: 1322
it first: 1323
it first: 1324
it first: 1325
it first: 1326
it first: 1327
it first: 1328
it first: 1329
it first: 1330
it first: 1331
it first: 1332
it first: 1333
it first: 1334
it first: 1335
it first: 1336
it first: 1337
it first: 1338
it first: 1339
it first: 1340
it first: 1341
it first: 1342
it first: 1343
it first: 1344
it first: 1345
it first: 1346
it first: 1347
it first: 1348
it first: 1349
it first: 1350
it first: 1351
it first: 1352
it first: 1353
it first: 1354
it first: 1355
it first: 1356
it first: 1357
it first: 1358
it first: 1359
it first: 1360
it first: 1361
it first: 1362
it first: 1363
it first: 1364
it first: 1365
it first: 1366
it first: 1367
it first: 1368
it first: 1369
it first: 1370
it first: 1371
it first: 1372
it first: 1373
it first: 1374
it first: 1375
it first: 1376
it first: 1377
it first: 1378
it first: 1379
it first: 1380
it first: 1381
it first: 1382
it first: 1383
it first: 1384
it first: 1385
it first: 1386
it first: 1387
it first: 1388
it first: 1389
it first: 1390
it first: 1391
it first: 1392
it first: 1393
it first: 1394
it first: 1395
it first: 1396
it first: 1397
it first: 1398
it first: 1399
it first: 1400
it first: 1401
it first: 1402
it first: 1403
it first: 1404
it first: 1405
it first: 1406
it first: 1407
it first: 1408
it first: 1409
it first: 1410
it first: 1411
it first: 1412
it first: 1413
it first: 1414
it first: 1415
it first: 1416
it first: 1417
it first: 1418
it first: 1419
it first: 1420
it first: 1150
it first: 1421
it first: 1422
it first: 1423
it first: 1424
it first: 1425
it first: 1426
it first: 1427
it first: 1428
it first: 1429
it first: 1430
it first: 1431
it first: 1432
it first: 1433
it first: 1434
it first: 1435
it first: 1436
it first: 1437
it first: 1438
it first: 1439
it first: 1440
it first: 1441
it first: 1442
it first: 1443
it first: 1444
it first: 1445
it first: 1446
it first: 1447
it first: 1448
it first: 1449
it first: 1450
it first: 1451
it first: 1452
it first: 1453
it first: 1454
it first: 1455
it first: 1456
it first: 1457
it first: 1458
it first: 1459
it first: 1460
it first: 1461
it first: 1462
it first: 1463
it first: 1464
it first: 1465
it first: 1466
it first: 1467
it first: 1468
it first: 1469
it first: 1470
it first: 1471
it first: 1472
it first: 1473
it first: 1474
it first: 1475
it first: 1476
it first: 1477
it first: 1478
it first: 1479
it first: 1480
it first: 1481
it first: 1482
it first: 1483
it first: 1484
it first: 1485
it first: 1486
it first: 1487
it first: 1488
it first: 1489
it first: 1490
it first: 1491
it first: 1492
it first: 1493
it first: 1494
it first: 1495
it first: 1496
it first: 1497
it first: 1498
it first: 1499
it first: 1500
it first: 1501
it first: 1502
it first: 1503
it first: 1504
it first: 1505
it first: 1506
it first: 1507
it first: 1508
it first: 1509
it first: 1510
it first: 1511
it first: 1512
it first: 1513
it first: 1514
it first: 1515
it first: 1516
it first: 1517
it first: 1518
it first: 1519
it first: 1520
it first: 1521
it first: 1522
it first: 1523
it first: 1524
it first: 1525
it first: 1526
it first: 1527
it first: 1528
it first: 1529
it first: 1530
it first: 1531
it first: 1532
it first: 1533
it first: 1534
it first: 1535
it first: 1536
it first: 1537
it first: 1538
it first: 1539
it first: 1540
it first: 1541
it first: 1542
it first: 1543
it first: 1544
it first: 1545
it first: 1546
it first: 1547
it first: 1548
it first: 1549
it first: 1550
it first: 1551
it first: 1552
it first: 1553
it first: 1554
it first: 1555
it first: 1556
it first: 1557
it first: 1558
it first: 1559
it first: 1560
it first: 1561
it first: 1562
it first: 1563
it first: 1564
it first: 1565
it first: 1566
it first: 1106
it first: 1567
it first: 1568
it first: 1569
it first: 1570
it first: 1571
it first: 1572
it first: 1573
it first: 1574
it first: 1575
it first: 1576
it first: 1577
it first: 1578
it first: 1579
it first: 1580
it first: 1581
it first: 1582
it first: 1583
it first: 1584
it first: 1585
it first: 1586
it first: 1587
it first: 1588
it first: 1589
it first: 1590
it first: 1591
it first: 1592
it first: 1593
it first: 1594
it first: 1595
it first: 1596
it first: 1597
it first: 1598
it first: 1599
it first: 1600
it first: 1601
it first: 1602
it first: 1603
it first: 1604
it first: 1605
it first: 1606
it first: 1607
it first: 1608
it first: 1609
it first: 1610
it first: 1611
it first: 1612
it first: 1613
it first: 1614
it first: 1615
it first: 1616
it first: 1617
it first: 1618
it first: 1619
it first: 1620
it first: 1621
it first: 1622
it first: 1623
it first: 1624
it first: 1625
it first: 1626
it first: 1627
it first: 1628
it first: 1629
it first: 1630
it first: 1631
it first: 1632
it first: 1633
it first: 1634
it first: 1635
it first: 1636
it first: 1637
it first: 1638
it first: 1639
it first: 1640
it first: 1641
it first: 1642
it first: 1643
it first: 1644
it first: 1645
it first: 1646
it first: 1647
it first: 1648
it first: 1649
it first: 1650
it first: 1651
it first: 1652
it first: 1653
it first: 1654
it first: 1655
it first: 1656
it first: 1657
it first: 1658
it first: 1659
it first: 1660
it first: 1661
it first: 1662
it first: 1663
it first: 1664
it first: 1665
it first: 1666
it first: 1667
it first: 1668
it first: 1669
it first: 1670
it first: 1671
it first: 1672
it first: 1673
it first: 1674
it first: 1675
it first: 1676
it first: 1677
it first: 1678
it first: 1679
it first: 1680
it first: 1681
it first: 1682
it first: 1683
it first: 1684
it first: 1128
it first: 1685
it first: 1686
it first: 1687
it first: 1688
it first: 1689
it first: 1690
it first: 1691
it first: 1692
it first: 1693
it first: 1694
it first: 1695
it first: 1696
it first: 1697
it first: 1698
it first: 1699
it first: 1700
it first: 1701
it first: 1702
it first: 1703
it first: 1704
it first: 1705
it first: 1706
it first: 1707
it first: 1708
it first: 1709
it first: 1710
it first: 1711
it first: 1712
it first: 1713
it first: 1714
it first: 1715
it first: 1716
it first: 1717
it first: 1718
it first: 1719
it first: 1720
it first: 1721
it first: 1722
it first: 1723
it first: 1724
it first: 1725
it first: 1726
it first: 1727
it first: 1728
it first: 1729
it first: 1730
it first: 1731
it first: 1732
it first: 1733
it first: 1734
it first: 1735
it first: 1736
it first: 1737
it first: 1738
it first: 1739
it first: 1740
it first: 1741
it first: 1742
it first: 1743
it first: 1744
it first: 1745
it first: 1746
it first: 1747
it first: 1748
it first: 1749
it first: 1750
it first: 1751
it first: 1752
it first: 1753
it first: 1754
it first: 1755
it first: 1756
it first: 1757
it first: 1758
it first: 1759
it first: 1760
it first: 1761
it first: 1762
it first: 1034
it first: 1763
it first: 1764
it first: 1765
it first: 1766
it first: 1767
it first: 1768
it first: 1769
it first: 1770
it first: 1771
it first: 1772
it first: 1773
it first: 1774
it first: 1775
it first: 1776
it first: 1777
it first: 1778
it first: 1779
it first: 1780
it first: 1781
it first: 1782
it first: 1783
it first: 1784
it first: 1785
it first: 1786
it first: 1787
it first: 1788
it first: 1789
it first: 1790
it first: 1791
it first: 1792
it first: 1793
it first: 1794
it first: 1795
it first: 1796
it first: 1797
it first: 1798
it first: 1799
it first: 1800
it first: 1801
it first: 1802
it first: 1803
it first: 1804
it first: 1805
it first: 1806
it first: 1807
it first: 1808
it first: 1809
it first: 1810
it first: 1811
it first: 1812
it first: 1813
it first: 1814
it first: 1815
it first: 1816
it first: 1817
it first: 1818
it first: 1819
it first: 1820
it first: 1821
it first: 1822
it first: 1823
it first: 1824
it first: 1825
it first: 1826
it first: 1827
it first: 1828
it first: 1829
it first: 1830
it first: 1831
it first: 1832
it first: 1833
it first: 1834
it first: 1835
it first: 1836
it first: 1837
it first: 1838
it first: 1839
it first: 1840
it first: 1841
it first: 1842
it first: 1843
it first: 1844
it first: 1845
it first: 1846
it first: 676
it first: 1847
it first: 1848
it first: 1849
it first: 1850
it first: 1851
it first: 1852
it first: 1853
it first: 1854
it first: 1855
it first: 1856
it first: 1857
it first: 1858
it first: 1859
it first: 1860
it first: 1861
it first: 1862
it first: 1863
it first: 1864
it first: 1865
it first: 1866
it first: 1867
it first: 1868
it first: 1869
it first: 1870
it first: 1871
it first: 1872
it first: 1873
it first: 1874
it first: 1875
it first: 1876
it first: 1877
it first: 1878
it first: 1879
it first: 1880
it first: 1881
it first: 1882
it first: 1883
it first: 1884
it first: 1885
it first: 1886
it first: 1887
it first: 1888
it first: 1889
it first: 1890
it first: 1891
it first: 1892
it first: 1893
it first: 1894
it first: 1895
it first: 1896
it first: 1897
it first: 1898
it first: 1899
it first: 1900
it first: 1901
it first: 1902
it first: 1903
it first: 1904
it first: 1905
it first: 1906
it first: 1907
it first: 1908
it first: 1909
it first: 1910
it first: 1911
it first: 1912
it first: 1913
it first: 1914
it first: 1915
it first: 1916
it first: 1917
it first: 1918
it first: 1919
it first: 1920
it first: 1921
it first: 1820
it first: 1922
it first: 1923
it first: 1924
it first: 1925
it first: 1926
it first: 1927
it first: 1928
it first: 1929
it first: 1930
it first: 1931
it first: 1932
it first: 1933
it first: 1934
it first: 1935
it first: 1936
it first: 1937
it first: 1938
it first: 1939
it first: 1940
it first: 1941
it first: 1942
it first: 1943
it first: 1944
it first: 1945
it first: 1946
it first: 1947
it first: 1948
it first: 1949
it first: 1950
it first: 1951
it first: 1952
it first: 1953
it first: 1954
it first: 880
it first: 1955
it first: 1956
it first: 1957
it first: 1958
it first: 1959
it first: 1960
it first: 1961
it first: 1962
it first: 1963
it first: 1964
it first: 1965
it first: 1966
it first: 1967
it first: 1968
it first: 1969
it first: 1970
it first: 1971
it first: 1972
it first: 1973
it first: 1974
it first: 1975
it first: 1976
it first: 1977
it first: 1978
it first: 1979
it first: 1980
it first: 1981
it first: 1982
it first: 1983
it first: 1984
it first: 1985
it first: 1986
it first: 1987
it first: 1988
it first: 1989
it first: 1990
it first: 1991
it first: 1992
it first: 1993
it first: 1994
it first: 1995
it first: 1996
it first: 1997
it first: 1090
it first: 1998
it first: 1999
it first: 2000
it first: 2001
it first: 2002
it first: 2003
it first: 2004
it first: 2005
it first: 2006
it first: 2007
it first: 2008
it first: 2009
it first: 2010
it first: 2011
it first: 2012
Finished CPU 0 instructions: 1000003 cycles: 6056539 cumulative IPC: 0.165111 (Simulation time: 0 hr 0 min 6 sec) 

ChampSim completed all CPUs

Region of Interest Statistics

CPU 0 cumulative IPC: 0.165111 instructions: 1000003 cycles: 6056539
L1D TOTAL     ACCESS:     185058  HIT:     151031  MISS:      34027
L1D LOAD      ACCESS:     140712  HIT:     109458  MISS:      31254
L1D RFO       ACCESS:      44346  HIT:      41573  MISS:       2773
L1D PREFETCH  ACCESS:          0  HIT:          0  MISS:          0
L1D WRITEBACK ACCESS:          0  HIT:          0  MISS:          0
L1D PREFETCH  REQUESTED:          0  ISSUED:          0  USEFUL:          0  USELESS:          0
L1D AVERAGE MISS LATENCY: 158.384 cycles
L1I TOTAL     ACCESS:     197010  HIT:     197010  MISS:          0
L1I LOAD      ACCESS:     197010  HIT:     197010  MISS:          0
L1I RFO       ACCESS:          0  HIT:          0  MISS:          0
L1I PREFETCH  ACCESS:          0  HIT:          0  MISS:          0
L1I WRITEBACK ACCESS:          0  HIT:          0  MISS:          0
L1I PREFETCH  REQUESTED:          0  ISSUED:          0  USEFUL:          0  USELESS:          0
L1I AVERAGE MISS LATENCY: -nan cycles
L2C TOTAL     ACCESS:      56213  HIT:      30431  MISS:      25782
L2C LOAD      ACCESS:      31254  HIT:       5628  MISS:      25626
L2C RFO       ACCESS:       2773  HIT:       2617  MISS:        156
L2C PREFETCH  ACCESS:          0  HIT:          0  MISS:          0
L2C WRITEBACK ACCESS:      22186  HIT:      22186  MISS:          0
L2C PREFETCH  REQUESTED:          0  ISSUED:          0  USEFUL:          0  USELESS:          0
L2C AVERAGE MISS LATENCY: 178.076 cycles
LLC TOTAL     ACCESS:      47970  HIT:      14664  MISS:      33306
LLC LOAD      ACCESS:      25626  HIT:        337  MISS:      25289
LLC RFO       ACCESS:        156  HIT:        127  MISS:         29
LLC PREFETCH  ACCESS:          0  HIT:          0  MISS:          0
LLC WRITEBACK ACCESS:      22188  HIT:      14200  MISS:       7988
LLC PREFETCH  REQUESTED:          0  ISSUED:          0  USEFUL:          0  USELESS:          0
LLC AVERAGE MISS LATENCY: 113.661 cycles
Major fault: 0 Minor fault: 3589

DRAM Statistics
 CHANNEL 0
 RQ ROW_BUFFER_HIT:       5909  ROW_BUFFER_MISS:      19409
 DBUS_CONGESTED:       6867
 WQ ROW_BUFFER_HIT:        904  ROW_BUFFER_MISS:      12490  FULL:          0

 AVG_CONGESTED_CYCLE: 6

CPU 0 Branch Prediction Accuracy: 99.9653% MPKI: 0.0539998 Average ROB Occupancy at Mispredict: 153.426

Branch types
NOT_BRANCH: 844230 84.4227%
BRANCH_DIRECT_JUMP: 22732 2.27319%
BRANCH_INDIRECT: 0 0%
BRANCH_CONDITIONAL: 88692 8.86917%
BRANCH_DIRECT_CALL: 22173 2.21729%
BRANCH_INDIRECT_CALL: 0 0%
BRANCH_RETURN: 22173 2.21729%
BRANCH_OTHER: 0 0%

